<?xml version="1.0" encoding="UTF-8"?>

<!-- generated on 2025-12-01T09:41:10.080951+03:00 by Eclipse SUMO netedit 1.25.0
<neteditConfiguration xmlns:xsi="http://www.w3.org/2001/XMLSchema-instance" xsi:noNamespaceSchemaLocation="http://sumo.dlr.de/xsd/neteditConfiguration.xsd">

    <input>
        <sumocfg-file value="C:\Users\acer\OneDrive\Masaüstü\Git\Traffic_Manegment\SUMO\mapV2\duz_map.sumocfg"/>
        <route-files value="C:\Users\acer\OneDrive\Masaüstü\Git\Traffic_Manegment\SUMO\mapV2\duz_map.rou.xml"/>
        <sumo-net-file value="C:\Users\acer\OneDrive\Masaüstü\Git\Traffic_Manegment\SUMO\mapV2\duz_yol.net.xml"/>
    </input>

    <output>
        <output-file value="C:\Users\acer\OneDrive\Masaüstü\Git\Traffic_Manegment\SUMO\mapV2\duz_yol.net.xml"/>
    </output>

    <processing>
        <offset.disable-normalization value="true"/>
    </processing>

    <junctions>
        <no-turnarounds value="true"/>
    </junctions>

    <netedit>
        <new-network value="false"/>
    </netedit>

</neteditConfiguration>
-->

<net version="1.20" junctionCornerDetail="5" limitTurnSpeed="5.50" xmlns:xsi="http://www.w3.org/2001/XMLSchema-instance" xsi:noNamespaceSchemaLocation="http://sumo.dlr.de/xsd/net_file.xsd">

    <location netOffset="0.00,0.00" convBoundary="-519.41,-412.38,754.01,260.11" origBoundary="10000000000.00,10000000000.00,-10000000000.00,-10000000000.00" projParameter="!"/>

    <edge id=":J10_0" function="internal">
        <lane id=":J10_0_0" index="0" speed="6.77" length="9.49" shape="200.98,-0.82 198.52,-1.03 196.52,-0.34 194.98,1.23 193.89,3.70"/>
    </edge>
    <edge id=":J10_1" function="internal">
        <lane id=":J10_1_0" index="0" speed="13.89" length="20.77" shape="200.98,-0.82 180.81,-5.86"/>
        <lane id=":J10_1_1" index="1" speed="13.89" length="20.77" shape="201.74,-3.93 181.60,-8.96"/>
    </edge>
    <edge id=":J10_3" function="internal">
        <lane id=":J10_3_0" index="0" speed="9.12" length="5.00" shape="201.74,-3.93 197.10,-5.81"/>
    </edge>
    <edge id=":J10_15" function="internal">
        <lane id=":J10_15_0" index="0" speed="9.12" length="14.10" shape="197.10,-5.81 196.95,-5.88 193.97,-8.94 192.81,-13.11 193.47,-18.40"/>
    </edge>
    <edge id=":J10_4" function="internal">
        <lane id=":J10_4_0" index="0" speed="7.15" length="11.32" shape="196.56,-17.58 196.43,-15.07 197.50,-13.00 199.78,-11.36 203.25,-10.15"/>
    </edge>
    <edge id=":J10_5" function="internal">
        <lane id=":J10_5_0" index="0" speed="13.89" length="21.33" shape="196.56,-17.58 196.00,-13.56 195.81,-8.72 195.32,-2.99 193.89,3.70"/>
        <lane id=":J10_5_1" index="1" speed="13.89" length="21.33" shape="196.56,-17.58 190.82,2.79"/>
    </edge>
    <edge id=":J10_7" function="internal">
        <lane id=":J10_7_0" index="0" speed="9.36" length="7.34" shape="196.56,-17.58 194.46,-12.67 193.01,-11.28"/>
    </edge>
    <edge id=":J10_16" function="internal">
        <lane id=":J10_16_0" index="0" speed="9.36" length="12.30" shape="193.01,-11.28 191.26,-9.60 186.98,-8.36 181.60,-8.96"/>
    </edge>
    <edge id=":J10_8" function="internal">
        <lane id=":J10_8_0" index="0" speed="7.46" length="12.09" shape="183.19,-15.16 187.13,-14.52 190.16,-14.84 192.28,-16.14 193.47,-18.40"/>
    </edge>
    <edge id=":J10_9" function="internal">
        <lane id=":J10_9_0" index="0" speed="13.89" length="20.69" shape="183.19,-15.16 203.25,-10.15"/>
        <lane id=":J10_9_1" index="1" speed="13.89" length="20.69" shape="182.39,-12.06 202.49,-7.04"/>
    </edge>
    <edge id=":J10_11" function="internal">
        <lane id=":J10_11_0" index="0" speed="9.20" length="4.80" shape="182.39,-12.06 186.82,-10.22"/>
    </edge>
    <edge id=":J10_17" function="internal">
        <lane id=":J10_17_0" index="0" speed="9.20" length="14.84" shape="186.82,-10.22 187.39,-9.99 190.46,-6.82 191.60,-2.56 190.82,2.79"/>
    </edge>
    <edge id=":J10_12" function="internal">
        <lane id=":J10_12_0" index="0" speed="6.43" length="9.03" shape="184.68,0.97 185.04,-1.49 184.52,-3.45 183.11,-4.91 180.81,-5.86"/>
    </edge>
    <edge id=":J10_13" function="internal">
        <lane id=":J10_13_0" index="0" speed="13.89" length="21.31" shape="184.68,0.97 187.07,-5.42 189.66,-10.50 191.95,-14.69 193.47,-18.40"/>
    </edge>
    <edge id=":J10_14" function="internal">
        <lane id=":J10_14_0" index="0" speed="9.45" length="4.82" shape="187.75,1.88 189.73,-2.51"/>
    </edge>
    <edge id=":J10_18" function="internal">
        <lane id=":J10_18_0" index="0" speed="9.45" length="14.62" shape="189.73,-2.51 189.97,-3.05 193.16,-6.18 197.34,-7.51 202.49,-7.04"/>
    </edge>
    <edge id=":J12_0" function="internal">
        <lane id=":J12_0_0" index="0" speed="9.53" length="14.55" shape="544.98,83.38 542.42,83.22 539.56,84.31 536.42,86.67 532.97,90.28"/>
    </edge>
    <edge id=":J12_1" function="internal">
        <lane id=":J12_1_0" index="0" speed="13.89" length="22.40" shape="544.98,83.38 523.50,77.50"/>
        <lane id=":J12_1_1" index="1" speed="13.89" length="22.40" shape="545.98,80.34 524.25,74.39"/>
    </edge>
    <edge id=":J12_3" function="internal">
        <lane id=":J12_3_0" index="0" speed="9.44" length="3.29" shape="545.98,80.34 543.07,78.80"/>
    </edge>
    <edge id=":J12_15" function="internal">
        <lane id=":J12_15_0" index="0" speed="9.44" length="14.85" shape="543.07,78.80 542.08,78.28 539.61,75.12 538.58,70.87 538.98,65.54"/>
    </edge>
    <edge id=":J12_4" function="internal">
        <lane id=":J12_4_0" index="0" speed="7.50" length="11.10" shape="542.12,66.13 542.08,68.83 543.03,71.08 545.00,72.90 547.98,74.27"/>
    </edge>
    <edge id=":J12_5" function="internal">
        <lane id=":J12_5_0" index="0" speed="13.89" length="25.62" shape="542.12,66.13 541.21,70.91 539.62,77.19 537.00,83.98 532.97,90.28"/>
        <lane id=":J12_5_1" index="1" speed="13.89" length="25.62" shape="542.12,66.13 540.83,70.58 538.40,76.15 534.93,82.23 530.53,88.22"/>
    </edge>
    <edge id=":J12_7" function="internal">
        <lane id=":J12_7_0" index="0" speed="9.79" length="7.88" shape="542.12,66.13 540.15,71.16 538.26,72.75"/>
    </edge>
    <edge id=":J12_16" function="internal">
        <lane id=":J12_16_0" index="0" speed="9.79" length="14.70" shape="538.26,72.75 536.51,74.22 531.21,75.29 524.25,74.39"/>
    </edge>
    <edge id=":J12_8" function="internal">
        <lane id=":J12_8_0" index="0" speed="8.04" length="14.91" shape="525.76,68.17 531.15,69.11 535.15,68.99 537.76,67.80 538.98,65.54"/>
    </edge>
    <edge id=":J12_9" function="internal">
        <lane id=":J12_9_0" index="0" speed="13.89" length="22.92" shape="525.76,68.17 547.98,74.27"/>
        <lane id=":J12_9_1" index="1" speed="13.89" length="22.92" shape="525.01,71.28 546.98,77.30"/>
    </edge>
    <edge id=":J12_11" function="internal">
        <lane id=":J12_11_0" index="0" speed="8.81" length="6.63" shape="525.01,71.28 531.18,73.70"/>
    </edge>
    <edge id=":J12_17" function="internal">
        <lane id=":J12_17_0" index="0" speed="8.81" length="16.99" shape="531.18,73.70 531.53,73.84 534.62,77.51 534.29,82.30 530.53,88.22"/>
    </edge>
    <edge id=":J12_12" function="internal">
        <lane id=":J12_12_0" index="0" speed="5.74" length="9.18" shape="525.64,84.08 527.10,81.78 527.23,79.92 526.03,78.49 523.50,77.50"/>
    </edge>
    <edge id=":J12_13" function="internal">
        <lane id=":J12_13_0" index="0" speed="13.89" length="23.01" shape="525.64,84.08 530.32,78.65 534.38,73.79 537.41,69.43 538.98,65.54"/>
    </edge>
    <edge id=":J12_14" function="internal">
        <lane id=":J12_14_0" index="0" speed="11.65" length="4.85" shape="528.09,86.15 531.50,82.70"/>
    </edge>
    <edge id=":J12_18" function="internal">
        <lane id=":J12_18_0" index="0" speed="11.65" length="17.26" shape="531.50,82.70 533.01,81.18 537.79,78.04 542.45,76.75 546.98,77.30"/>
    </edge>
    <edge id=":J6_0" function="internal">
        <lane id=":J6_0_0" index="0" speed="9.36" length="13.96" shape="-274.00,-126.33 -276.54,-126.40 -279.27,-125.26 -282.19,-122.92 -285.29,-119.36"/>
    </edge>
    <edge id=":J6_1" function="internal">
        <lane id=":J6_1_0" index="0" speed="13.89" length="21.97" shape="-274.00,-126.33 -295.22,-131.89"/>
        <lane id=":J6_1_1" index="1" speed="13.89" length="21.97" shape="-273.15,-129.41 -294.43,-134.99"/>
    </edge>
    <edge id=":J6_3" function="internal">
        <lane id=":J6_3_0" index="0" speed="9.45" length="3.88" shape="-273.15,-129.41 -276.65,-131.07"/>
    </edge>
    <edge id=":J6_15" function="internal">
        <lane id=":J6_15_0" index="0" speed="9.45" length="14.41" shape="-276.65,-131.07 -277.14,-131.30 -279.74,-134.37 -280.94,-138.62 -280.76,-144.05"/>
    </edge>
    <edge id=":J6_4" function="internal">
        <lane id=":J6_4_0" index="0" speed="7.51" length="11.21" shape="-277.59,-143.59 -277.54,-140.82 -276.50,-138.56 -274.46,-136.81 -271.44,-135.58"/>
    </edge>
    <edge id=":J6_5" function="internal">
        <lane id=":J6_5_0" index="0" speed="13.89" length="25.22" shape="-277.59,-143.59 -278.24,-138.83 -279.43,-132.59 -281.62,-125.79 -285.29,-119.36"/>
        <lane id=":J6_5_1" index="1" speed="13.89" length="25.22" shape="-277.59,-143.59 -278.64,-139.14 -280.70,-133.57 -283.76,-127.44 -287.83,-121.31"/>
    </edge>
    <edge id=":J6_7" function="internal">
        <lane id=":J6_7_0" index="0" speed="9.49" length="8.10" shape="-277.59,-143.59 -279.32,-138.40 -281.24,-136.61"/>
    </edge>
    <edge id=":J6_16" function="internal">
        <lane id=":J6_16_0" index="0" speed="9.49" length="13.91" shape="-281.24,-136.61 -282.71,-135.24 -287.74,-134.10 -294.43,-134.99"/>
    </edge>
    <edge id=":J6_8" function="internal">
        <lane id=":J6_8_0" index="0" speed="7.67" length="13.98" shape="-292.86,-141.20 -287.88,-140.30 -284.20,-140.48 -281.83,-141.73 -280.76,-144.05"/>
    </edge>
    <edge id=":J6_9" function="internal">
        <lane id=":J6_9_0" index="0" speed="13.89" length="22.11" shape="-292.86,-141.20 -271.44,-135.58"/>
        <lane id=":J6_9_1" index="1" speed="13.89" length="22.11" shape="-293.65,-138.09 -272.29,-132.50"/>
    </edge>
    <edge id=":J6_11" function="internal">
        <lane id=":J6_11_0" index="0" speed="8.83" length="5.46" shape="-293.65,-138.09 -288.59,-136.04"/>
    </edge>
    <edge id=":J6_17" function="internal">
        <lane id=":J6_17_0" index="0" speed="8.83" length="17.51" shape="-288.59,-136.04 -287.41,-135.56 -284.36,-131.91 -284.50,-127.16 -287.83,-121.31"/>
    </edge>
    <edge id=":J6_12" function="internal">
        <lane id=":J6_12_0" index="0" speed="5.81" length="9.14" shape="-292.90,-125.21 -291.58,-127.54 -291.52,-129.43 -292.74,-130.88 -295.22,-131.89"/>
    </edge>
    <edge id=":J6_13" function="internal">
        <lane id=":J6_13_0" index="0" speed="13.89" length="22.59" shape="-292.90,-125.21 -288.54,-130.80 -284.82,-135.75 -282.10,-140.14 -280.76,-144.05"/>
    </edge>
    <edge id=":J6_14" function="internal">
        <lane id=":J6_14_0" index="0" speed="11.52" length="4.69" shape="-290.37,-123.26 -287.22,-126.73"/>
    </edge>
    <edge id=":J6_18" function="internal">
        <lane id=":J6_18_0" index="0" speed="11.52" length="16.84" shape="-287.22,-126.73 -285.85,-128.24 -281.34,-131.44 -276.82,-132.86 -272.29,-132.50"/>
    </edge>
    <edge id=":J8_0" function="internal">
        <lane id=":J8_0_0" index="0" speed="7.06" length="10.00" shape="-66.61,-69.16 -69.06,-69.37 -71.13,-68.63 -72.83,-66.94 -74.16,-64.31"/>
    </edge>
    <edge id=":J8_1" function="internal">
        <lane id=":J8_1_0" index="0" speed="13.89" length="20.79" shape="-66.61,-69.16 -86.73,-74.53"/>
        <lane id=":J8_1_1" index="1" speed="13.89" length="20.79" shape="-65.82,-72.26 -85.87,-77.61"/>
    </edge>
    <edge id=":J8_3" function="internal">
        <lane id=":J8_3_0" index="0" speed="9.33" length="4.91" shape="-65.82,-72.26 -70.33,-74.18"/>
    </edge>
    <edge id=":J8_15" function="internal">
        <lane id=":J8_15_0" index="0" speed="9.33" length="14.21" shape="-70.33,-74.18 -70.46,-74.23 -73.40,-77.33 -74.66,-81.57 -74.22,-86.93"/>
    </edge>
    <edge id=":J8_4" function="internal">
        <lane id=":J8_4_0" index="0" speed="7.40" length="11.65" shape="-71.10,-86.25 -71.13,-83.62 -70.00,-81.45 -67.70,-79.73 -64.23,-78.46"/>
    </edge>
    <edge id=":J8_5" function="internal">
        <lane id=":J8_5_0" index="0" speed="13.89" length="21.98" shape="-71.10,-86.25 -71.54,-82.08 -71.73,-76.97 -72.38,-71.02 -74.16,-64.31"/>
        <lane id=":J8_5_1" index="1" speed="13.89" length="21.98" shape="-71.10,-86.25 -72.01,-82.26 -73.24,-77.52 -74.91,-71.95 -77.16,-65.41"/>
    </edge>
    <edge id=":J8_7" function="internal">
        <lane id=":J8_7_0" index="0" speed="9.17" length="7.56" shape="-71.10,-86.25 -72.99,-81.21 -74.52,-79.67"/>
    </edge>
    <edge id=":J8_16" function="internal">
        <lane id=":J8_16_0" index="0" speed="9.17" length="12.22" shape="-74.52,-79.67 -76.09,-78.09 -80.38,-76.89 -85.87,-77.61"/>
    </edge>
    <edge id=":J8_8" function="internal">
        <lane id=":J8_8_0" index="0" speed="7.22" length="11.85" shape="-84.17,-83.78 -80.27,-83.07 -77.31,-83.36 -75.30,-84.65 -74.22,-86.93"/>
    </edge>
    <edge id=":J8_9" function="internal">
        <lane id=":J8_9_0" index="0" speed="13.89" length="20.67" shape="-84.17,-83.78 -64.23,-78.46"/>
        <lane id=":J8_9_1" index="1" speed="13.89" length="20.67" shape="-85.02,-80.70 -65.02,-75.36"/>
    </edge>
    <edge id=":J8_11" function="internal">
        <lane id=":J8_11_0" index="0" speed="9.14" length="4.68" shape="-85.02,-80.70 -80.73,-78.82"/>
    </edge>
    <edge id=":J8_17" function="internal">
        <lane id=":J8_17_0" index="0" speed="9.14" length="15.30" shape="-80.73,-78.82 -79.95,-78.48 -76.95,-75.19 -76.02,-70.83 -77.16,-65.41"/>
    </edge>
    <edge id=":J8_12" function="internal">
        <lane id=":J8_12_0" index="0" speed="6.34" length="9.04" shape="-83.17,-67.62 -82.65,-70.07 -83.07,-72.04 -84.43,-73.53 -86.73,-74.53"/>
    </edge>
    <edge id=":J8_13" function="internal">
        <lane id=":J8_13_0" index="0" speed="13.89" length="21.32" shape="-83.17,-67.62 -80.47,-73.91 -77.80,-78.96 -75.58,-83.17 -74.22,-86.93"/>
    </edge>
    <edge id=":J8_14" function="internal">
        <lane id=":J8_14_0" index="0" speed="9.67" length="4.88" shape="-80.17,-66.52 -77.92,-70.85"/>
    </edge>
    <edge id=":J8_18" function="internal">
        <lane id=":J8_18_0" index="0" speed="9.67" length="14.70" shape="-77.92,-70.85 -77.62,-71.43 -74.25,-74.54 -70.05,-75.86 -65.02,-75.36"/>
    </edge>

    <edge id="-E10" from="J12" to="J13" priority="-1">
        <lane id="-E10_0" index="0" speed="13.89" length="226.49" shape="532.97,90.28 386.70,263.21"/>
        <lane id="-E10_1" index="1" speed="13.89" length="226.49" shape="530.53,88.22 384.26,261.14"/>
    </edge>
    <edge id="-E11" from="J14" to="J12" priority="-1">
        <lane id="-E11_0" index="0" speed="13.89" length="267.24" shape="592.00,-196.41 542.12,66.13"/>
    </edge>
    <edge id="-E12" from="J15" to="J10" priority="-1">
        <lane id="-E12_0" index="0" speed="13.89" length="280.51" shape="269.04,-288.57 196.56,-17.58"/>
    </edge>
    <edge id="-E13" from="J16" to="J8" priority="-1">
        <lane id="-E13_0" index="0" speed="13.89" length="278.60" shape="-12.17,-358.55 -71.10,-86.25"/>
    </edge>
    <edge id="-E14" from="J17" to="J6" priority="-1">
        <lane id="-E14_0" index="0" speed="13.89" length="271.40" shape="-238.41,-412.15 -277.59,-143.59"/>
    </edge>
    <edge id="-E15" from="J18" to="J12" priority="-1">
        <lane id="-E15_0" index="0" speed="13.89" length="218.51" shape="752.51,151.79 544.98,83.38"/>
        <lane id="-E15_1" index="1" speed="13.89" length="218.51" shape="753.51,148.75 545.98,80.34"/>
    </edge>
    <edge id="-E3" from="J6" to="J5" priority="-1">
        <lane id="-E3_0" index="0" speed="13.89" length="180.27" shape="-285.29,-119.36 -395.15,23.57"/>
        <lane id="-E3_1" index="1" speed="13.89" length="180.27" shape="-287.83,-121.31 -397.69,21.62"/>
    </edge>
    <edge id="-E4" from="J6" to="J7" priority="-1">
        <lane id="-E4_0" index="0" speed="13.89" length="232.49" shape="-295.22,-131.89 -520.59,-189.00"/>
        <lane id="-E4_1" index="1" speed="13.89" length="232.49" shape="-294.43,-134.99 -519.80,-192.10"/>
    </edge>
    <edge id="-E5" from="J8" to="J6" priority="-1">
        <lane id="-E5_0" index="0" speed="13.89" length="194.31" shape="-86.73,-74.53 -274.00,-126.33"/>
        <lane id="-E5_1" index="1" speed="13.89" length="194.31" shape="-85.87,-77.61 -273.15,-129.41"/>
    </edge>
    <edge id="-E6" from="J8" to="J9" priority="-1">
        <lane id="-E6_0" index="0" speed="13.89" length="229.48" shape="-74.16,-64.31 -153.08,151.17"/>
        <lane id="-E6_1" index="1" speed="13.89" length="229.48" shape="-77.16,-65.41 -156.09,150.07"/>
    </edge>
    <edge id="-E7" from="J10" to="J8" priority="-1">
        <lane id="-E7_0" index="0" speed="13.89" length="255.39" shape="180.81,-5.86 -66.61,-69.16"/>
        <lane id="-E7_1" index="1" speed="13.89" length="255.39" shape="181.60,-8.96 -65.82,-72.26"/>
    </edge>
    <edge id="-E8" from="J10" to="J11" priority="-1">
        <lane id="-E8_0" index="0" speed="13.89" length="185.45" shape="193.89,3.70 141.17,181.50"/>
        <lane id="-E8_1" index="1" speed="13.89" length="185.45" shape="190.82,2.79 138.10,180.59"/>
    </edge>
    <edge id="-E9" from="J12" to="J10" priority="-1">
        <lane id="-E9_0" index="0" speed="13.89" length="331.89" shape="523.50,77.50 200.98,-0.82"/>
        <lane id="-E9_1" index="1" speed="13.89" length="331.89" shape="524.25,74.39 201.74,-3.93"/>
    </edge>
    <edge id="E10" from="J13" to="J12" priority="-1">
        <lane id="E10_0" index="0" speed="13.89" length="226.49" shape="379.38,257.01 525.64,84.08"/>
        <lane id="E10_1" index="1" speed="13.89" length="226.49" shape="381.82,259.08 528.09,86.15"/>
    </edge>
    <edge id="E11" from="J12" to="J14" priority="-1">
        <lane id="E11_0" index="0" speed="13.89" length="267.24" shape="538.98,65.54 588.86,-197.01"/>
    </edge>
    <edge id="E12" from="J10" to="J15" priority="-1">
        <lane id="E12_0" index="0" speed="13.89" length="280.51" shape="193.47,-18.40 265.94,-289.39"/>
    </edge>
    <edge id="E13" from="J8" to="J16" priority="-1">
        <lane id="E13_0" index="0" speed="13.89" length="278.60" shape="-74.22,-86.93 -15.29,-359.23"/>
    </edge>
    <edge id="E14" from="J6" to="J17" priority="-1">
        <lane id="E14_0" index="0" speed="13.89" length="271.40" shape="-280.76,-144.05 -241.57,-412.61"/>
    </edge>
    <edge id="E15" from="J12" to="J18" priority="-1">
        <lane id="E15_0" index="0" speed="13.89" length="218.51" shape="547.98,74.27 755.51,142.67"/>
        <lane id="E15_1" index="1" speed="13.89" length="218.51" shape="546.98,77.30 754.51,145.71"/>
    </edge>
    <edge id="E3" from="J5" to="J6" priority="-1">
        <lane id="E3_0" index="0" speed="13.89" length="180.27" shape="-402.77,17.71 -292.90,-125.21"/>
        <lane id="E3_1" index="1" speed="13.89" length="180.27" shape="-400.23,19.66 -290.37,-123.26"/>
    </edge>
    <edge id="E4" from="J7" to="J6" priority="-1">
        <lane id="E4_0" index="0" speed="13.89" length="232.49" shape="-518.23,-198.30 -292.86,-141.20"/>
        <lane id="E4_1" index="1" speed="13.89" length="232.49" shape="-519.02,-195.20 -293.65,-138.09"/>
    </edge>
    <edge id="E5" from="J6" to="J8" priority="-1">
        <lane id="E5_0" index="0" speed="13.89" length="194.31" shape="-271.44,-135.58 -84.17,-83.78"/>
        <lane id="E5_1" index="1" speed="13.89" length="194.31" shape="-272.29,-132.50 -85.02,-80.70"/>
    </edge>
    <edge id="E6" from="J9" to="J8" priority="-1">
        <lane id="E6_0" index="0" speed="13.89" length="229.48" shape="-162.10,147.87 -83.17,-67.62"/>
        <lane id="E6_1" index="1" speed="13.89" length="229.48" shape="-159.09,148.97 -80.17,-66.52"/>
    </edge>
    <edge id="E7" from="J8" to="J10" priority="-1">
        <lane id="E7_0" index="0" speed="13.89" length="255.39" shape="-64.23,-78.46 183.19,-15.16"/>
        <lane id="E7_1" index="1" speed="13.89" length="255.39" shape="-65.02,-75.36 182.39,-12.06"/>
    </edge>
    <edge id="E8" from="J11" to="J10" priority="-1">
        <lane id="E8_0" index="0" speed="13.89" length="185.45" shape="131.97,178.78 184.68,0.97"/>
        <lane id="E8_1" index="1" speed="13.89" length="185.45" shape="135.04,179.69 187.75,1.88"/>
    </edge>
    <edge id="E9" from="J10" to="J12" priority="-1">
        <lane id="E9_0" index="0" speed="13.89" length="331.89" shape="203.25,-10.15 525.76,68.17"/>
        <lane id="E9_1" index="1" speed="13.89" length="331.89" shape="202.49,-7.04 525.01,71.28"/>
    </edge>

    <tlLogic id="J10" type="static" programID="0" offset="0">
        <phase duration="38" state="GGGgrrrrGGGgrrr"/>
        <phase duration="3"  state="yyyyrrrryyyyrrr"/>
        <phase duration="37" state="rrrrGGGgrrrrGGg"/>
        <phase duration="3"  state="rrrryyygrrrryyg"/>
        <phase duration="6"  state="rrrrrrrGrrrrrrG"/>
        <phase duration="3"  state="rrrrrrryrrrrrry"/>
    </tlLogic>
    <tlLogic id="J12" type="static" programID="0" offset="0">
        <phase duration="38" state="GGGgrrrrGGGgrrr"/>
        <phase duration="3"  state="yyyyrrrryyyyrrr"/>
        <phase duration="37" state="rrrrGGGgrrrrGGg"/>
        <phase duration="3"  state="rrrryyygrrrryyg"/>
        <phase duration="6"  state="rrrrrrrGrrrrrrG"/>
        <phase duration="3"  state="rrrrrrryrrrrrry"/>
    </tlLogic>
    <tlLogic id="J6" type="static" programID="0" offset="0">
        <phase duration="38" state="GGGgrrrrGGGgrrr"/>
        <phase duration="3"  state="yyyyrrrryyyyrrr"/>
        <phase duration="37" state="rrrrGGGgrrrrGGg"/>
        <phase duration="3"  state="rrrryyygrrrryyg"/>
        <phase duration="6"  state="rrrrrrrGrrrrrrG"/>
        <phase duration="3"  state="rrrrrrryrrrrrry"/>
    </tlLogic>
    <tlLogic id="J8" type="static" programID="0" offset="0">
        <phase duration="38" state="GGGgrrrrGGGgrrr"/>
        <phase duration="3"  state="yyyyrrrryyyyrrr"/>
        <phase duration="37" state="rrrrGGGgrrrrGGg"/>
        <phase duration="3"  state="rrrryyygrrrryyg"/>
        <phase duration="6"  state="rrrrrrrGrrrrrrG"/>
        <phase duration="3"  state="rrrrrrryrrrrrry"/>
    </tlLogic>

    <junction id="J10" type="traffic_light" x="192.31" y="-7.87" incLanes="-E9_0 -E9_1 -E12_0 E7_0 E7_1 E8_0 E8_1" intLanes=":J10_0_0 :J10_1_0 :J10_1_1 :J10_15_0 :J10_4_0 :J10_5_0 :J10_5_1 :J10_16_0 :J10_8_0 :J10_9_0 :J10_9_1 :J10_17_0 :J10_12_0 :J10_13_0 :J10_18_0" shape="200.60,0.73 203.62,-11.71 201.65,-12.30 200.10,-13.02 198.97,-13.87 198.26,-14.84 197.97,-15.94 198.11,-17.16 191.93,-18.82 190.53,-16.82 189.31,-16.30 187.75,-16.12 185.84,-16.25 183.58,-16.71 180.41,-4.31 182.44,-3.33 183.03,-2.61 183.35,-1.72 183.39,-0.68 183.15,0.52 195.42,4.16 196.57,1.83 197.36,1.11 198.30,0.69 199.38,0.56">
        <request index="0"  response="000000000000000" foes="000000001100000" cont="0"/>
        <request index="1"  response="100000000000000" foes="111100011100000" cont="0"/>
        <request index="2"  response="100000010000000" foes="111100011100000" cont="0"/>
        <request index="3"  response="100011110000000" foes="110011111100000" cont="1"/>
        <request index="4"  response="000011000000000" foes="000011000000000" cont="0"/>
        <request index="5"  response="000111000001111" foes="100111000001111" cont="0"/>
        <request index="6"  response="000111000001111" foes="100111000001111" cont="0"/>
        <request index="7"  response="010111000001110" foes="010111000001110" cont="1"/>
        <request index="8"  response="000000000000000" foes="010000000001000" cont="0"/>
        <request index="9"  response="000000010000000" foes="110000011111000" cont="0"/>
        <request index="10" response="100000010000000" foes="110000011111000" cont="0"/>
        <request index="11" response="100000010000110" foes="110000011100110" cont="1"/>
        <request index="12" response="000000000000110" foes="000000000000110" cont="0"/>
        <request index="13" response="000111100001110" foes="000111110001110" cont="0"/>
        <request index="14" response="000111001101110" foes="000111001101110" cont="1"/>
    </junction>
    <junction id="J11" type="dead_end" x="136.57" y="180.14" incLanes="-E8_0 -E8_1" intLanes="" shape="136.57,180.14 142.71,181.96 136.57,180.14"/>
    <junction id="J12" type="traffic_light" x="538.58" y="76.22" incLanes="-E15_0 -E15_1 -E11_0 E9_0 E9_1 E10_0 E10_1" intLanes=":J12_0_0 :J12_1_0 :J12_1_1 :J12_15_0 :J12_4_0 :J12_5_0 :J12_5_1 :J12_16_0 :J12_8_0 :J12_9_0 :J12_9_1 :J12_17_0 :J12_12_0 :J12_13_0 :J12_18_0" shape="544.48,84.90 548.48,72.75 545.45,71.22 544.47,70.24 543.85,69.11 543.59,67.85 543.70,66.43 537.41,65.24 535.82,67.14 534.22,67.55 532.07,67.60 529.37,67.28 526.14,66.61 523.12,79.05 524.99,79.91 525.39,80.52 525.42,81.25 525.10,82.09 524.42,83.05 534.19,91.32 536.28,89.01 538.22,87.20 540.01,85.88 541.65,85.06 543.14,84.73">
        <request index="0"  response="000000000000000" foes="000000001100000" cont="0"/>
        <request index="1"  response="100000000000000" foes="111100011100000" cont="0"/>
        <request index="2"  response="100000010000000" foes="111100011100000" cont="0"/>
        <request index="3"  response="100011110000000" foes="110011111100000" cont="1"/>
        <request index="4"  response="000011000000000" foes="000011000000000" cont="0"/>
        <request index="5"  response="000111000001111" foes="100111000001111" cont="0"/>
        <request index="6"  response="000111000001111" foes="100111000001111" cont="0"/>
        <request index="7"  response="010111000001110" foes="010111000001110" cont="1"/>
        <request index="8"  response="000000000000000" foes="010000000001000" cont="0"/>
        <request index="9"  response="000000010000000" foes="110000011111000" cont="0"/>
        <request index="10" response="100000010000000" foes="110000011111000" cont="0"/>
        <request index="11" response="100000010000110" foes="110000011100110" cont="1"/>
        <request index="12" response="000000000000110" foes="000000000000110" cont="0"/>
        <request index="13" response="000111100001110" foes="000111110001110" cont="0"/>
        <request index="14" response="000111001101110" foes="000111001101110" cont="1"/>
    </junction>
    <junction id="J13" type="dead_end" x="383.04" y="260.11" incLanes="-E10_0 -E10_1" intLanes="" shape="383.04,260.11 387.93,264.24 383.04,260.11"/>
    <junction id="J14" type="dead_end" x="590.43" y="-196.71" incLanes="E11_0" intLanes="" shape="590.43,-196.71 587.29,-197.31 590.43,-196.71"/>
    <junction id="J15" type="dead_end" x="267.49" y="-288.98" incLanes="E12_0" intLanes="" shape="267.49,-288.98 264.40,-289.81 267.49,-288.98"/>
    <junction id="J16" type="dead_end" x="-13.73" y="-358.89" incLanes="E13_0" intLanes="" shape="-13.73,-358.89 -16.86,-359.57 -13.73,-358.89"/>
    <junction id="J17" type="dead_end" x="-239.99" y="-412.38" incLanes="E14_0" intLanes="" shape="-239.99,-412.38 -243.16,-412.84 -239.99,-412.38"/>
    <junction id="J18" type="dead_end" x="754.01" y="147.23" incLanes="E15_0 E15_1" intLanes="" shape="754.01,147.23 756.01,141.15 754.01,147.23"/>
    <junction id="J5" type="dead_end" x="-398.96" y="20.64" incLanes="-E3_0 -E3_1" intLanes="" shape="-398.96,20.64 -393.89,24.54 -398.96,20.64"/>
    <junction id="J6" type="traffic_light" x="-280.73" y="-133.17" incLanes="-E5_0 -E5_1 -E14_0 E4_0 E4_1 E3_0 E3_1" intLanes=":J6_0_0 :J6_1_0 :J6_1_1 :J6_15_0 :J6_4_0 :J6_5_0 :J6_5_1 :J6_16_0 :J6_8_0 :J6_9_0 :J6_9_1 :J6_17_0 :J6_12_0 :J6_13_0 :J6_18_0" shape="-274.43,-124.79 -271.01,-137.12 -274.09,-138.51 -275.10,-139.47 -275.76,-140.59 -276.06,-141.89 -276.01,-143.36 -282.34,-144.29 -283.72,-142.36 -285.16,-141.92 -287.10,-141.84 -289.53,-142.12 -292.47,-142.75 -295.61,-130.34 -293.73,-129.44 -293.31,-128.81 -293.25,-128.06 -293.53,-127.18 -294.17,-126.18 -284.02,-118.38 -282.16,-120.64 -280.41,-122.41 -278.75,-123.72 -277.21,-124.55 -275.76,-124.90">
        <request index="0"  response="000000000000000" foes="000000001100000" cont="0"/>
        <request index="1"  response="100000000000000" foes="111100011100000" cont="0"/>
        <request index="2"  response="100000010000000" foes="111100011100000" cont="0"/>
        <request index="3"  response="100011110000000" foes="110011111100000" cont="1"/>
        <request index="4"  response="000011000000000" foes="000011000000000" cont="0"/>
        <request index="5"  response="000111000001111" foes="100111000001111" cont="0"/>
        <request index="6"  response="000111000001111" foes="100111000001111" cont="0"/>
        <request index="7"  response="010111000001110" foes="010111000001110" cont="1"/>
        <request index="8"  response="000000000000000" foes="010000000001000" cont="0"/>
        <request index="9"  response="000000010000000" foes="110000011111000" cont="0"/>
        <request index="10" response="100000010000000" foes="110000011111000" cont="0"/>
        <request index="11" response="100000010000110" foes="110000011100110" cont="1"/>
        <request index="12" response="000000000000110" foes="000000000000110" cont="0"/>
        <request index="13" response="000111100001110" foes="000111110001110" cont="0"/>
        <request index="14" response="000111001101110" foes="000111001101110" cont="1"/>
    </junction>
    <junction id="J7" type="dead_end" x="-519.41" y="-193.65" incLanes="-E4_0 -E4_1" intLanes="" shape="-519.41,-193.65 -520.98,-187.45 -519.41,-193.65"/>