<?xml version="1.0" encoding="UTF-8"?>

<!-- generated on 2025-12-01T09:40:02.705170+03:00 by Eclipse SUMO netedit 1.25.0
-->

<routes xmlns:xsi="http://www.w3.org/2001/XMLSchema-instance" xsi:noNamespaceSchemaLocation="http://sumo.dlr.de/xsd/routes_file.xsd">
    <!-- Vehicles, persons and containers (sorted by depart) -->
    <flow id="f_0" begin="0.00" end="3600.00" perHour="2500.00" from="-E15" to="-E4"/>
    <flow id="f_1" begin="0.00" end="5000.00" perHour="1000.00" from="-E15" to="-E10"/>
    <flow id="f_10" begin="0.00" end="5000.00" perHour="2500.00" from="E6" to="E13"/>
    <flow id="f_11" begin="0.00" end="5000.00" perHour="2500.00" from="E8" to="E12"/>
    <flow id="f_12" begin="0.00" end="5000.00" perHour="2500.00" from="E10" to="E11"/>
    <flow id="f_13" begin="0.00" end="5000.00" perHour="3000.00" from="E4" to="E15"/>
    <flow id="f_14" begin="0.00" end="5000.00" perHour="500.00" from="-E14" to="-E3"/>
    <flow id="f_15" begin="0.00" end="5000.00" perHour="500.00" from="-E13" to="-E6"/>
    <flow id="f_16" begin="0.00" end="5000.00" perHour="500.00" from="-E12" to="-E8"/>
    <flow id="f_17" begin="0.00" end="5000.00" perHour="500.00" from="-E11" to="-E10"/>
    <flow id="f_18" begin="0.00" end="5000.00" perHour="800.00" from="E4" to="E14"/>
    <flow id="f_19" begin="0.00" end="5000.00" perHour="800.00" from="E4" to="E13"/>
    <flow id="f_2" begin="0.00" end="5000.00" perHour="1000.00" from="-E15" to="-E8"/>
    <flow id="f_20" begin="0.00" end="5000.00" perHour="800.00" from="E4" to="E12"/>
    <flow id="f_21" begin="0.00" end="5000.00" perHour="800.00" from="E4" to="E11"/>
    <flow id="f_3" begin="0.00" end="5000.00" perHour="1000.00" from="-E15" to="-E6"/>
    <flow id="f_4" begin="0.00" end="5000.00" perHour="1000.00" from="-E15" to="-E3"/>
    <flow id="f_5" begin="0.00" end="5000.00" perHour="1000.00" from="-E15" to="E11"/>
    <flow id="f_6" begin="0.00" end="5000.00" perHour="1000.00" from="-E15" to="E12"/>
    <flow id="f_7" begin="0.00" end="5000.00" perHour="1000.00" from="-E15" to="E13"/>
    <flow id="f_8" begin="0.00" end="5000.00" perHour="1000.00" from="-E15" to="E14"/>
    <flow id="f_9" begin="0.00" end="5000.00" perHour="2500.00" from="E3" to="E14"/>
</routes>
