<?xml version="1.0" encoding="UTF-8"?>

<!-- generated on 2025-12-01T09:40:02.706041+03:00 by Eclipse SUMO sumo 1.25.0
-->

<sumoConfiguration xmlns:xsi="http://www.w3.org/2001/XMLSchema-instance" xsi:noNamespaceSchemaLocation="http://sumo.dlr.de/xsd/sumoConfiguration.xsd">

    <input>
        <net-file value="duz_yol.net.xml"/>
        <route-files value="duz_map.rou.xml"/>
    </input>

</sumoConfiguration>
