<?xml version="1.0" encoding="UTF-8"?>

<!-- generated on 2025-11-25 19:25:00.016180 by Eclipse SUMO randomTrips.py v1_25_0+0000-ac6c5a6752d
<configuration>
    <net-file value="grid_sehir.net.xml"/>
    <route-file value="traffic.rou.xml"/>
    <fringe-factor value="10"/>
    <period value="8.0"/>
</configuration>
-->

<!-- generated on 2025-11-25T19:24:59.951845+03:00 by Eclipse SUMO duarouter 1.25.0
<duarouterConfiguration xmlns:xsi="http://www.w3.org/2001/XMLSchema-instance" xsi:noNamespaceSchemaLocation="http://sumo.dlr.de/xsd/duarouterConfiguration.xsd">

    <input>
        <net-file value="grid_sehir.net.xml"/>
        <route-files value="trips.trips.xml"/>
    </input>

    <output>
        <output-file value="traffic.rou.xml"/>
        <alternatives-output value="NUL"/>
    </output>

    <time>
        <begin value="0"/>
        <end value="3600.0"/>
    </time>

    <report>
        <no-warnings value="true"/>
        <ignore-errors value="true"/>
        <no-step-log value="true"/>
    </report>

</duarouterConfiguration>
-->

<routes xmlns:xsi="http://www.w3.org/2001/XMLSchema-instance" xsi:noNamespaceSchemaLocation="http://sumo.dlr.de/xsd/routes_file.xsd">
    <vehicle id="0" depart="0.00">
        <route edges="C1D1 D1C1 C1B1 B1A1 A1A0 A0B0"/>
    </vehicle>
    <vehicle id="1" depart="8.00">
        <route edges="B1A1 A1B1 B1B0 B0A0"/>
    </vehicle>
    <vehicle id="2" depart="16.00">
        <route edges="C3B3 B3B2 B2C2 C2C1"/>
    </vehicle>
    <vehicle id="3" depart="24.00">
        <route edges="D1D2 D2C2 C2B2 B2A2 A2A1 A1B1"/>
    </vehicle>
    <vehicle id="4" depart="32.00">
        <route edges="B2C2 C2C1 C1B1 B1A1 A1A0 A0B0"/>
    </vehicle>
    <vehicle id="5" depart="40.00">
        <route edges="B0A0 A0A1 A1B1 B1C1 C1C0 C0B0"/>
    </vehicle>
    <vehicle id="6" depart="48.00">
        <route edges="A0B0 B0B1 B1B2 B2A2 A2A3 A3B3"/>
    </vehicle>
    <vehicle id="7" depart="56.00">
        <route edges="C2B2 B2B1 B1B0 B0C0 C0D0"/>
    </vehicle>
    <vehicle id="8" depart="64.00">
        <route edges="B0A0 A0A1 A1B1 B1C1 C1C0"/>
    </vehicle>
    <vehicle id="9" depart="72.00">
        <route edges="D0C0 C0B0 B0A0 A0A1"/>
    </vehicle>
    <vehicle id="10" depart="80.00">
        <route edges="D0C0 C0C1 C1C2 C2C3"/>
    </vehicle>
    <vehicle id="11" depart="88.00">
        <route edges="B1C1 C1B1 B1A1 A1A2 A2B2"/>
    </vehicle>
    <vehicle id="12" depart="96.00">
        <route edges="D2D3 D3C3 C3B3 B3B2 B2B1 B1C1"/>
    </vehicle>
    <vehicle id="13" depart="104.00">
        <route edges="A1B1"/>
    </vehicle>
    <vehicle id="14" depart="112.00">
        <route edges="D1C1 C1C0"/>
    </vehicle>
    <vehicle id="15" depart="120.00">
        <route edges="D0C0 C0C1 C1C2 C2C3 C3B3"/>
    </vehicle>
    <vehicle id="16" depart="128.00">
        <route edges="C0C1 C1C2 C2D2 D2D3 D3C3"/>
    </vehicle>
    <vehicle id="17" depart="136.00">
        <route edges="B2B1 B1B0 B0C0 C0D0"/>
    </vehicle>
    <vehicle id="18" depart="144.00">
        <route edges="D0D1 D1C1 C1C2"/>
    </vehicle>
    <vehicle id="19" depart="152.00">
        <route edges="D1D0 D0C0 C0C1 C1B1"/>
    </vehicle>
    <vehicle id="20" depart="160.00">
        <route edges="C2C3 C3B3 B3A3 A3A2 A2A1 A1A0"/>
    </vehicle>
    <vehicle id="21" depart="168.00">
        <route edges="B0A0 A0A1 A1B1 B1A1"/>
    </vehicle>
    <vehicle id="22" depart="176.00">
        <route edges="A1A2 A2B2 B2B1 B1B0 B0B1"/>
    </vehicle>
    <vehicle id="23" depart="184.00">
        <route edges="A1B1 B1A1"/>
    </vehicle>
    <vehicle id="24" depart="192.00">
        <route edges="C1D1 D1D2 D2C2 C2B2 B2A2"/>
    </vehicle>
    <vehicle id="25" depart="200.00">
        <route edges="B2A2 A2B2 B2B1 B1B0 B0A0"/>
    </vehicle>
    <vehicle id="26" depart="208.00">
        <route edges="B0C0 C0C1 C1C2 C2D2 D2D1"/>
    </vehicle>
    <vehicle id="27" depart="216.00">
        <route edges="C2B2 B2B1 B1C1 C1C2"/>
    </vehicle>
    <vehicle id="28" depart="224.00">
        <route edges="A3A2 A2B2 B2C2 C2D2"/>
    </vehicle>
    <vehicle id="29" depart="232.00">
        <route edges="A2B2 B2B1"/>
    </vehicle>
    <vehicle id="30" depart="240.00">
        <route edges="D3D2 D2C2 C2C1 C1D1"/>
    </vehicle>
    <vehicle id="31" depart="248.00">
        <route edges="C0D0 D0D1 D1D2 D2C2 C2C1"/>
    </vehicle>
    <vehicle id="32" depart="256.00">
        <route edges="D1C1 C1C2 C2C3 C3D3"/>
    </vehicle>
    <vehicle id="33" depart="264.00">
        <route edges="B0A0 A0A1 A1A0 A0B0"/>
    </vehicle>
    <vehicle id="34" depart="272.00">
        <route edges="B1B2 B2B1 B1B0 B0C0"/>
    </vehicle>
    <vehicle id="35" depart="280.00">
        <route edges="B0A0 A0A1 A1A2 A2B2 B2C2 C2D2 D2D3"/>
    </vehicle>
    <vehicle id="36" depart="288.00">
        <route edges="D1D2 D2C2 C2C1 C1B1 B1B2"/>
    </vehicle>
    <vehicle id="37" depart="296.00">
        <route edges="C2B2 B2B1"/>
    </vehicle>
    <vehicle id="38" depart="304.00">
        <route edges="D2C2 C2B2 B2B3 B3B2"/>
    </vehicle>
    <vehicle id="39" depart="312.00">
        <route edges="B0C0 C0B0 B0B1"/>
    </vehicle>
    <vehicle id="40" depart="320.00">
        <route edges="C0D0 D0D1 D1C1 C1B1 B1B0 B0C0"/>
    </vehicle>
    <vehicle id="41" depart="328.00">
        <route edges="C1C0 C0D0 D0D1 D1D2 D2C2"/>
    </vehicle>
    <vehicle id="42" depart="336.00">
        <route edges="B2B3 B3B2 B2B1 B1B0 B0A0"/>
    </vehicle>
    <vehicle id="43" depart="344.00">
        <route edges="D3D2 D2D1 D1D0 D0C0 C0B0"/>
    </vehicle>
    <vehicle id="44" depart="352.00">
        <route edges="A1B1 B1A1 A1A0"/>
    </vehicle>
    <vehicle id="45" depart="360.00">
        <route edges="A2A1 A1B1 B1C1 C1D1"/>
    </vehicle>
    <vehicle id="46" depart="368.00">
        <route edges="D0C0 C0B0 B0B1 B1B2 B2C2"/>
    </vehicle>
    <vehicle id="47" depart="376.00">
        <route edges="A1A2 A2B2 B2B1"/>
    </vehicle>
    <vehicle id="48" depart="384.00">
        <route edges="D3D2 D2D1 D1D0 D0C0 C0C1"/>
    </vehicle>
    <vehicle id="49" depart="392.00">
        <route edges="D3C3 C3C2 C2C1 C1D1 D1D0"/>
    </vehicle>
    <vehicle id="50" depart="400.00">
        <route edges="A0A1 A1A2 A2B2 B2C2 C2D2"/>
    </vehicle>
    <vehicle id="51" depart="408.00">
        <route edges="C2C1 C1C0 C0C1"/>
    </vehicle>
    <vehicle id="52" depart="416.00">
        <route edges="B0C0 C0C1 C1D1"/>
    </vehicle>
    <vehicle id="53" depart="424.00">
        <route edges="A2A1 A1B1 B1B2 B2C2"/>
    </vehicle>
    <vehicle id="54" depart="432.00">
        <route edges="B3A3 A3A2 A2B2 B2C2 C2D2 D2D3"/>
    </vehicle>
    <vehicle id="55" depart="440.00">
        <route edges="D1D2 D2C2 C2B2 B2B1 B1B0 B0C0"/>
    </vehicle>
    <vehicle id="56" depart="448.00">
        <route edges="C0B0 B0B1 B1B2 B2B3 B3A3 A3A2"/>
    </vehicle>
    <vehicle id="57" depart="456.00">
        <route edges="D2C2 C2C1 C1D1 D1D0"/>
    </vehicle>
    <vehicle id="58" depart="464.00">
        <route edges="B1B0 B0B1 B1C1 C1D1"/>
    </vehicle>
    <vehicle id="59" depart="472.00">
        <route edges="C1C2 C2B2 B2A2 A2B2"/>
    </vehicle>
    <vehicle id="60" depart="480.00">
        <route edges="C3C2 C2C1 C1C0 C0C1"/>
    </vehicle>
    <vehicle id="61" depart="488.00">
        <route edges="C3D3 D3D2 D2D1 D1D0 D0C0 C0C1"/>
    </vehicle>
    <vehicle id="62" depart="496.00">
        <route edges="A0A1 A1B1 B1B2"/>
    </vehicle>
    <vehicle id="63" depart="504.00">
        <route edges="A0A1 A1A2 A2B2 B2C2 C2D2 D2D1"/>
    </vehicle>
    <vehicle id="64" depart="512.00">
        <route edges="D1D2 D2C2 C2C1 C1C0 C0D0 D0D1"/>
    </vehicle>
    <vehicle id="65" depart="520.00">
        <route edges="B1B0 B0B1 B1A1 A1A0"/>
    </vehicle>
    <vehicle id="66" depart="528.00">
        <route edges="D1D2 D2D3"/>
    </vehicle>
    <vehicle id="67" depart="536.00">
        <route edges="A1B1 B1B2 B2B3 B3C3"/>
    </vehicle>
    <vehicle id="68" depart="544.00">
        <route edges="A1A2 A2A3 A3B3 B3C3 C3C2"/>
    </vehicle>
    <vehicle id="69" depart="552.00">
        <route edges="C3C2 C2B2 B2A2 A2A3"/>
    </vehicle>
    <vehicle id="70" depart="560.00">
        <route edges="B3B2 B2B1 B1B0 B0C0 C0D0"/>
    </vehicle>
    <vehicle id="71" depart="568.00">
        <route edges="B0C0 C0C1 C1D1 D1D0"/>
    </vehicle>
    <vehicle id="72" depart="576.00">
        <route edges="B2C2 C2C1 C1C0 C0B0 B0A0"/>
    </vehicle>
    <vehicle id="73" depart="584.00">
        <route edges="C0C1 C1C2 C2C3 C3B3"/>
    </vehicle>
    <vehicle id="74" depart="592.00">
        <route edges="A3B3 B3B2 B2B1 B1B0"/>
    </vehicle>
    <vehicle id="75" depart="600.00">
        <route edges="D3D2 D2C2 C2B2"/>
    </vehicle>
    <vehicle id="76" depart="608.00">
        <route edges="B3A3 A3A2 A2A1 A1B1 B1C1 C1C0 C0B0"/>
    </vehicle>
    <vehicle id="77" depart="616.00">
        <route edges="A2A1 A1B1 B1B0 B0A0"/>
    </vehicle>
    <vehicle id="78" depart="624.00">
        <route edges="B1C1 C1C0"/>
    </vehicle>
    <vehicle id="79" depart="632.00">
        <route edges="B0B1 B1B0 B0A0"/>
    </vehicle>
    <vehicle id="80" depart="640.00">
        <route edges="A1A2 A2B2 B2B1 B1C1 C1D1"/>
    </vehicle>
    <vehicle id="81" depart="648.00">
        <route edges="B0A0 A0A1 A1A2 A2B2 B2C2 C2D2 D2C2"/>
    </vehicle>
    <vehicle id="82" depart="656.00">
        <route edges="D1D0 D0C0 C0B0 B0A0 A0A1 A1A2"/>
    </vehicle>
    <vehicle id="83" depart="664.00">
        <route edges="B0B1 B1B2 B2C2 C2C1"/>
    </vehicle>
    <vehicle id="84" depart="672.00">
        <route edges="B0A0 A0A1 A1A2 A2A3"/>
    </vehicle>
    <vehicle id="85" depart="680.00">
        <route edges="D2D1 D1C1 C1B1"/>
    </vehicle>
    <vehicle id="86" depart="688.00">
        <route edges="B3B2 B2C2 C2C3 C3D3"/>
    </vehicle>
    <vehicle id="87" depart="696.00">
        <route edges="D0C0 C0B0 B0A0 A0A1 A1A2 A2A3 A3B3"/>
    </vehicle>
    <vehicle id="88" depart="704.00">
        <route edges="A1B1 B1B2 B2C2"/>
    </vehicle>
    <vehicle id="89" depart="712.00">
        <route edges="B2C2 C2C3 C3B3 B3B2"/>
    </vehicle>
    <vehicle id="90" depart="720.00">
        <route edges="C2D2 D2C2 C2C1"/>
    </vehicle>
    <vehicle id="91" depart="728.00">
        <route edges="D3D2 D2D1 D1C1 C1B1 B1A1 A1B1"/>
    </vehicle>
    <vehicle id="92" depart="736.00">
        <route edges="B2B3 B3B2 B2B1 B1C1"/>
    </vehicle>
    <vehicle id="93" depart="744.00">
        <route edges="D1D0 D0C0 C0B0 B0B1"/>
    </vehicle>
    <vehicle id="94" depart="752.00">
        <route edges="A3B3 B3A3"/>
    </vehicle>
    <vehicle id="95" depart="760.00">
        <route edges="B2C2 C2C1 C1B1 B1A1"/>
    </vehicle>
    <vehicle id="96" depart="768.00">
        <route edges="B0B1 B1B2 B2C2 C2D2 D2D1"/>
    </vehicle>
    <vehicle id="97" depart="776.00">
        <route edges="B3A3 A3A2 A2A1 A1B1 B1C1 C1D1 D1D0"/>
    </vehicle>
    <vehicle id="98" depart="784.00">
        <route edges="C0D0 D0D1 D1C1 C1B1 B1A1 A1A0"/>
    </vehicle>
    <vehicle id="99" depart="792.00">
        <route edges="D3D2 D2D1 D1C1"/>
    </vehicle>
    <vehicle id="100" depart="800.00">
        <route edges="D3C3 C3C2 C2D2 D2D1"/>
    </vehicle>
    <vehicle id="101" depart="808.00">
        <route edges="D1C1 C1B1 B1A1 A1A2 A2B2"/>
    </vehicle>
    <vehicle id="102" depart="816.00">
        <route edges="B3C3 C3C2 C2C1 C1C0 C0B0 B0A0"/>
    </vehicle>
    <vehicle id="103" depart="824.00">
        <route edges="B2B3 B3A3 A3A2 A2A1 A1A0"/>
    </vehicle>
    <vehicle id="104" depart="832.00">
        <route edges="B2B1 B1C1 C1C2 C2C3 C3D3 D3D2"/>
    </vehicle>
    <vehicle id="105" depart="840.00">
        <route edges="B0C0 C0C1 C1C2 C2C3 C3D3"/>
    </vehicle>
    <vehicle id="106" depart="848.00">
        <route edges="B3A3 A3A2 A2B2 B2C2"/>
    </vehicle>
    <vehicle id="107" depart="856.00">
        <route edges="D2D3 D3C3 C3D3 D3D2"/>
    </vehicle>
    <vehicle id="108" depart="864.00">
        <route edges="C0D0 D0D1 D1C1 C1C2 C2D2"/>
    </vehicle>
    <vehicle id="109" depart="872.00">
        <route edges="A2B2 B2B1 B1B0"/>
    </vehicle>
    <vehicle id="110" depart="880.00">
        <route edges="D3C3 C3C2 C2C1 C1B1"/>
    </vehicle>
    <vehicle id="111" depart="888.00">
        <route edges="C0D0 D0D1 D1D2 D2D3 D3C3 C3B3"/>
    </vehicle>
    <vehicle id="112" depart="896.00">
        <route edges="A1A0 A0B0 B0B1 B1C1 C1C0"/>
    </vehicle>
    <vehicle id="113" depart="904.00">
        <route edges="C0B0 B0B1 B1C1 C1D1 D1C1"/>
    </vehicle>
    <vehicle id="114" depart="912.00">
        <route edges="A2B2 B2C2 C2D2 D2D3 D3C3"/>
    </vehicle>
    <vehicle id="115" depart="920.00">
        <route edges="A1A2 A2B2 B2B3 B3A3 A3A2"/>
    </vehicle>
    <vehicle id="116" depart="928.00">
        <route edges="C1C0 C0C1 C1C2 C2C1"/>
    </vehicle>
    <vehicle id="117" depart="936.00">
        <route edges="B0B1 B1B2 B2A2 A2A1"/>
    </vehicle>
    <vehicle id="118" depart="944.00">
        <route edges="D1D2 D2C2 C2C1 C1C0 C0B0 B0B1"/>
    </vehicle>
    <vehicle id="119" depart="952.00">
        <route edges="C1C0 C0C1 C1C2"/>
    </vehicle>
    <vehicle id="120" depart="960.00">
        <route edges="B2C2 C2C1 C1C0"/>
    </vehicle>
    <vehicle id="121" depart="968.00">
        <route edges="C0C1 C1C2 C2D2 D2D1"/>
    </vehicle>
    <vehicle id="122" depart="976.00">
        <route edges="A3B3 B3C3 C3C2 C2D2"/>
    </vehicle>
    <vehicle id="123" depart="984.00">
        <route edges="B0B1 B1B2 B2B1"/>
    </vehicle>
    <vehicle id="124" depart="992.00">
        <route edges="C2C1 C1B1 B1B0"/>
    </vehicle>
    <vehicle id="125" depart="1000.00">
        <route edges="B1B2 B2B3 B3C3 C3C2"/>
    </vehicle>
    <vehicle id="126" depart="1008.00">
        <route edges="A1A2 A2B2 B2B3 B3A3"/>
    </vehicle>
    <vehicle id="127" depart="1016.00">
        <route edges="D3D2"/>
    </vehicle>
    <vehicle id="128" depart="1024.00">
        <route edges="A1A2 A2B2 B2B1 B1B0 B0A0"/>
    </vehicle>
    <vehicle id="129" depart="1032.00">
        <route edges="B0C0 C0C1 C1C2 C2D2 D2D1"/>
    </vehicle>
    <vehicle id="130" depart="1040.00">
        <route edges="D1D2"/>
    </vehicle>
    <vehicle id="131" depart="1048.00">
        <route edges="B2A2 A2B2"/>
    </vehicle>
    <vehicle id="132" depart="1056.00">
        <route edges="D1C1 C1C2 C2C3"/>
    </vehicle>
    <vehicle id="133" depart="1064.00">
        <route edges="C1C2 C2C3 C3D3 D3D2"/>
    </vehicle>
    <vehicle id="134" depart="1072.00">
        <route edges="C2B2 B2B1 B1B0 B0A0 A0A1"/>
    </vehicle>
    <vehicle id="135" depart="1080.00">
        <route edges="D0D1 D1C1 C1B1 B1B0"/>
    </vehicle>
    <vehicle id="136" depart="1088.00">
        <route edges="C2B2 B2C2 C2D2 D2D3"/>
    </vehicle>
    <vehicle id="137" depart="1096.00">
        <route edges="A2A3 A3B3 B3B2 B2A2 A2A1"/>
    </vehicle>
    <vehicle id="138" depart="1104.00">
        <route edges="A2A1 A1A0 A0B0 B0C0 C0D0"/>
    </vehicle>
    <vehicle id="139" depart="1112.00">
        <route edges="B1A1 A1B1 B1C1 C1C2"/>
    </vehicle>
    <vehicle id="140" depart="1120.00">
        <route edges="C2D2 D2C2 C2B2 B2A2 A2A3 A3B3"/>
    </vehicle>
    <vehicle id="141" depart="1128.00">
        <route edges="C1D1 D1C1 C1B1 B1B0 B0C0"/>
    </vehicle>
    <vehicle id="142" depart="1136.00">
        <route edges="B3C3 C3D3 D3D2 D2C2"/>
    </vehicle>
    <vehicle id="143" depart="1144.00">
        <route edges="D1C1 C1B1 B1A1 A1B1"/>
    </vehicle>
    <vehicle id="144" depart="1152.00">
        <route edges="B2C2 C2C1 C1B1 B1A1"/>
    </vehicle>
    <vehicle id="145" depart="1160.00">
        <route edges="A0A1 A1A2 A2A3 A3B3 B3C3 C3D3"/>
    </vehicle>
    <vehicle id="146" depart="1168.00">
        <route edges="C1D1 D1C1 C1B1 B1B0 B0C0"/>
    </vehicle>
    <vehicle id="147" depart="1176.00">
        <route edges="C3B3 B3B2 B2B1 B1B0 B0C0 C0D0"/>
    </vehicle>
    <vehicle id="148" depart="1184.00">
        <route edges="B2C2 C2C1 C1C0 C0B0 B0A0 A0A1"/>
    </vehicle>
    <vehicle id="149" depart="1192.00">
        <route edges="A1A2 A2B2 B2B1 B1C1 C1D1 D1D2"/>
    </vehicle>
    <vehicle id="150" depart="1200.00">
        <route edges="D2C2 C2C1 C1C0 C0D0"/>
    </vehicle>
    <vehicle id="151" depart="1208.00">
        <route edges="D1C1 C1B1"/>
    </vehicle>
    <vehicle id="152" depart="1216.00">
        <route edges="A2B2 B2A2 A2A3"/>
    </vehicle>
    <vehicle id="153" depart="1224.00">
        <route edges="B1B0 B0C0 C0D0 D0D1 D1D2 D2C2"/>
    </vehicle>
    <vehicle id="154" depart="1232.00">
        <route edges="D0C0 C0C1 C1D1 D1D0"/>
    </vehicle>
    <vehicle id="155" depart="1240.00">
        <route edges="D2C2 C2B2 B2B1 B1B0 B0A0"/>
    </vehicle>
    <vehicle id="156" depart="1248.00">
        <route edges="B0B1 B1A1 A1B1"/>
    </vehicle>
    <vehicle id="157" depart="1256.00">
        <route edges="C3D3 D3D2 D2D1 D1D2"/>
    </vehicle>
    <vehicle id="158" depart="1264.00">
        <route edges="B2B3 B3C3 C3C2 C2C1 C1C2"/>
    </vehicle>
    <vehicle id="159" depart="1272.00">
        <route edges="A2B2 B2C2 C2D2 D2D1"/>
    </vehicle>
    <vehicle id="160" depart="1280.00">
        <route edges="D1D0 D0C0 C0C1 C1C2 C2D2 D2D3 D3C3"/>
    </vehicle>
    <vehicle id="161" depart="1288.00">
        <route edges="D0C0 C0C1 C1D1 D1D2"/>
    </vehicle>
    <vehicle id="162" depart="1296.00">
        <route edges="A0B0 B0C0 C0C1 C1C2 C2C3 C3B3"/>
    </vehicle>
    <vehicle id="163" depart="1304.00">
        <route edges="B1B2 B2C2 C2D2 D2D1"/>
    </vehicle>
    <vehicle id="164" depart="1312.00">
        <route edges="D0C0 C0C1 C1D1 D1D0"/>
    </vehicle>
    <vehicle id="165" depart="1320.00">
        <route edges="D0C0 C0B0 B0C0"/>
    </vehicle>
    <vehicle id="166" depart="1328.00">
        <route edges="C3D3 D3D2 D2C2 C2B2 B2A2 A2A1"/>
    </vehicle>
    <vehicle id="167" depart="1336.00">
        <route edges="D1D0"/>
    </vehicle>
    <vehicle id="168" depart="1344.00">
        <route edges="B0A0 A0A1 A1B1 B1C1 C1C0 C0D0 D0D1"/>
    </vehicle>
    <vehicle id="169" depart="1352.00">
        <route edges="B3B2 B2B1 B1B0"/>
    </vehicle>
    <vehicle id="170" depart="1360.00">
        <route edges="D0C0 C0B0 B0A0"/>
    </vehicle>
    <vehicle id="171" depart="1368.00">
        <route edges="A0B0 B0B1 B1B2 B2A2 A2A3 A3B3"/>
    </vehicle>
    <vehicle id="172" depart="1376.00">
        <route edges="B1B2 B2C2 C2D2 D2D1 D1D0"/>
    </vehicle>
    <vehicle id="173" depart="1384.00">
        <route edges="D3C3 C3B3 B3B2 B2B1 B1A1"/>
    </vehicle>
    <vehicle id="174" depart="1392.00">
        <route edges="C1D1 D1C1 C1B1 B1B2 B2B3"/>
    </vehicle>
    <vehicle id="175" depart="1400.00">
        <route edges="D3D2 D2D1 D1D0 D0C0 C0C1"/>
    </vehicle>
    <vehicle id="176" depart="1408.00">
        <route edges="D2D3 D3C3 C3B3 B3A3 A3A2 A2A1"/>
    </vehicle>
    <vehicle id="177" depart="1416.00">
        <route edges="D3C3 C3B3 B3A3 A3A2"/>
    </vehicle>
    <vehicle id="178" depart="1424.00">
        <route edges="D3C3 C3B3 B3B2 B2B1 B1B0 B0C0"/>
    </vehicle>
    <vehicle id="179" depart="1432.00">
        <route edges="A2A1 A1B1 B1B2 B2C2"/>
    </vehicle>
    <vehicle id="180" depart="1440.00">
        <route edges="C2D2 D2D1 D1C1 C1B1 B1B2"/>
    </vehicle>
    <vehicle id="181" depart="1448.00">
        <route edges="C1C2 C2C1 C1C0 C0B0"/>
    </vehicle>
    <vehicle id="182" depart="1456.00">
        <route edges="B2B1 B1C1 C1B1"/>
    </vehicle>
    <vehicle id="183" depart="1464.00">
        <route edges="B0C0 C0C1 C1C2 C2D2"/>
    </vehicle>
    <vehicle id="184" depart="1472.00">
        <route edges="A0A1 A1A2 A2B2 B2C2 C2D2 D2D1"/>
    </vehicle>
    <vehicle id="185" depart="1480.00">
        <route edges="C0C1 C1C2 C2D2"/>
    </vehicle>
    <vehicle id="186" depart="1488.00">
        <route edges="C3B3 B3B2 B2C2 C2C1"/>
    </vehicle>
    <vehicle id="187" depart="1496.00">
        <route edges="B2A2 A2A1 A1A2"/>
    </vehicle>
    <vehicle id="188" depart="1504.00">
        <route edges="C2B2 B2B1 B1B2"/>
    </vehicle>
    <vehicle id="189" depart="1512.00">
        <route edges="B1B2 B2C2 C2D2 D2D1 D1C1"/>
    </vehicle>
    <vehicle id="190" depart="1520.00">
        <route edges="C2D2 D2D1 D1C1 C1B1 B1B0"/>
    </vehicle>
    <vehicle id="191" depart="1528.00">
        <route edges="B1B0 B0B1 B1B2 B2B3"/>
    </vehicle>
    <vehicle id="192" depart="1536.00">
        <route edges="B2B3 B3B2 B2B1 B1B0"/>
    </vehicle>
    <vehicle id="193" depart="1544.00">
        <route edges="A2A3 A3B3 B3B2 B2C2"/>
    </vehicle>
    <vehicle id="194" depart="1552.00">
        <route edges="D2D3 D3C3 C3C2 C2C1"/>
    </vehicle>
    <vehicle id="195" depart="1560.00">
        <route edges="D2C2 C2C1 C1C2"/>
    </vehicle>
    <vehicle id="196" depart="1568.00">
        <route edges="B1B0 B0C0 C0D0"/>
    </vehicle>
    <vehicle id="197" depart="1576.00">
        <route edges="A0A1 A1B1 B1A1"/>
    </vehicle>
    <vehicle id="198" depart="1584.00">
        <route edges="B2C2 C2C1 C1B1"/>
    </vehicle>
    <vehicle id="199" depart="1592.00">
        <route edges="C2B2 B2B3 B3B2"/>
    </vehicle>
    <vehicle id="200" depart="1600.00">
        <route edges="B3A3 A3A2 A2A1 A1B1 B1B0 B0A0"/>
    </vehicle>
    <vehicle id="201" depart="1608.00">
        <route edges="B3B2 B2C2 C2D2 D2C2"/>
    </vehicle>
    <vehicle id="202" depart="1616.00">
        <route edges="D0C0 C0C1 C1C2 C2C3 C3B3 B3A3 A3A2"/>
    </vehicle>
    <vehicle id="203" depart="1624.00">
        <route edges="A1B1 B1C1 C1C0 C0B0"/>
    </vehicle>
    <vehicle id="204" depart="1632.00">
        <route edges="C1D1 D1C1 C1B1 B1C1"/>
    </vehicle>
    <vehicle id="205" depart="1640.00">
        <route edges="D0D1 D1D2 D2D3 D3C3 C3C2"/>
    </vehicle>
    <vehicle id="206" depart="1648.00">
        <route edges="C2C1 C1C0 C0B0 B0A0"/>
    </vehicle>
    <vehicle id="207" depart="1656.00">
        <route edges="A3B3 B3B2 B2B1 B1A1 A1A0 A0B0"/>
    </vehicle>
    <vehicle id="208" depart="1664.00">
        <route edges="B0B1 B1B2 B2B3 B3B2"/>
    </vehicle>
    <vehicle id="209" depart="1672.00">
        <route edges="D1C1 C1B1 B1A1 A1A2"/>
    </vehicle>
    <vehicle id="210" depart="1680.00">
        <route edges="B2B3 B3C3 C3C2 C2C1 C1D1"/>
    </vehicle>
    <vehicle id="211" depart="1688.00">
        <route edges="A3B3 B3B2 B2C2 C2C3"/>
    </vehicle>
    <vehicle id="212" depart="1696.00">
        <route edges="B3C3 C3C2 C2C1 C1C0 C0B0 B0B1"/>
    </vehicle>
    <vehicle id="213" depart="1704.00">
        <route edges="C2B2 B2B1 B1B0 B0A0 A0A1"/>
    </vehicle>
    <vehicle id="214" depart="1712.00">
        <route edges="C3C2"/>
    </vehicle>
    <vehicle id="215" depart="1720.00">
        <route edges="A2A1 A1B1 B1B2 B2C2"/>
    </vehicle>
    <vehicle id="216" depart="1728.00">
        <route edges="A3A2 A2B2 B2C2 C2D2 D2D3"/>
    </vehicle>
    <vehicle id="217" depart="1736.00">
        <route edges="C0B0 B0B1 B1A1 A1A0"/>
    </vehicle>
    <vehicle id="218" depart="1744.00">
        <route edges="B0B1 B1C1 C1D1 D1C1"/>
    </vehicle>
    <vehicle id="219" depart="1752.00">
        <route edges="B3A3 A3A2 A2A1 A1B1 B1C1 C1D1 D1D0 D0C0"/>
    </vehicle>
    <vehicle id="220" depart="1760.00">
        <route edges="C2C1 C1C2 C2C3 C3D3 D3D2"/>
    </vehicle>
    <vehicle id="221" depart="1768.00">
        <route edges="C1C0 C0D0 D0D1 D1D2 D2D3"/>
    </vehicle>
    <vehicle id="222" depart="1776.00">
        <route edges="D1D2 D2D1 D1C1 C1C2"/>
    </vehicle>
    <vehicle id="223" depart="1784.00">
        <route edges="C2D2 D2D1 D1D0 D0C0 C0B0"/>
    </vehicle>
    <vehicle id="224" depart="1792.00">
        <route edges="D0D1 D1C1 C1C0 C0D0"/>
    </vehicle>
    <vehicle id="225" depart="1800.00">
        <route edges="D2C2 C2C3 C3B3"/>
    </vehicle>
    <vehicle id="226" depart="1808.00">
        <route edges="B3B2 B2B1 B1B0 B0C0"/>
    </vehicle>
    <vehicle id="227" depart="1816.00">
        <route edges="B0B1 B1C1 C1D1"/>
    </vehicle>
    <vehicle id="228" depart="1824.00">
        <route edges="C3C2 C2C1 C1C0 C0C1"/>
    </vehicle>
    <vehicle id="229" depart="1832.00">
        <route edges="C1D1 D1C1 C1B1 B1A1"/>
    </vehicle>
    <vehicle id="230" depart="1840.00">
        <route edges="A1A2 A2B2 B2B1 B1A1"/>
    </vehicle>
    <vehicle id="231" depart="1848.00">
        <route edges="B1A1 A1B1 B1B2"/>
    </vehicle>
    <vehicle id="232" depart="1856.00">
        <route edges="C0C1 C1C2 C2B2 B2A2 A2A3"/>
    </vehicle>
    <vehicle id="233" depart="1864.00">
        <route edges="B0B1 B1B2 B2C2 C2C3"/>
    </vehicle>
    <vehicle id="234" depart="1872.00">
        <route edges="C2C3 C3C2 C2C1 C1B1 B1A1 A1A2"/>
    </vehicle>
    <vehicle id="235" depart="1880.00">
        <route edges="B2B3 B3C3 C3C2 C2C1 C1C0 C0D0"/>
    </vehicle>
    <vehicle id="236" depart="1888.00">
        <route edges="B2B3 B3B2 B2A2 A2A3 A3B3"/>
    </vehicle>
    <vehicle id="237" depart="1896.00">
        <route edges="B2C2 C2D2 D2C2"/>
    </vehicle>
    <vehicle id="238" depart="1904.00">
        <route edges="C1C0 C0C1 C1C2 C2C3"/>
    </vehicle>
    <vehicle id="239" depart="1912.00">
        <route edges="D1D0 D0C0 C0C1 C1C2 C2C3 C3C2"/>
    </vehicle>
    <vehicle id="240" depart="1920.00">
        <route edges="B2B1 B1B0 B0A0 A0A1"/>
    </vehicle>
    <vehicle id="241" depart="1928.00">
        <route edges="B1C1 C1C2 C2C3 C3C2"/>
    </vehicle>
    <vehicle id="242" depart="1936.00">
        <route edges="D1C1 C1C2 C2D2 D2D3"/>
    </vehicle>
    <vehicle id="243" depart="1944.00">
        <route edges="B2C2 C2C3 C3B3"/>
    </vehicle>
    <vehicle id="244" depart="1952.00">
        <route edges="C0D0 D0D1 D1C1 C1C0"/>
    </vehicle>
    <vehicle id="245" depart="1960.00">
        <route edges="B0A0"/>
    </vehicle>
    <vehicle id="246" depart="1968.00">
        <route edges="B2C2 C2C1 C1B1 B1A1 A1A0 A0B0"/>
    </vehicle>
    <vehicle id="247" depart="1976.00">
        <route edges="B1C1 C1C2 C2C1"/>
    </vehicle>
    <vehicle id="248" depart="1984.00">
        <route edges="B2B3 B3A3 A3A2 A2B2"/>
    </vehicle>
    <vehicle id="249" depart="1992.00">
        <route edges="B3B2 B2A2 A2A3"/>
    </vehicle>
    <vehicle id="250" depart="2000.00">
        <route edges="C1C2 C2B2 B2A2 A2A1 A1A0 A0B0"/>
    </vehicle>
    <vehicle id="251" depart="2008.00">
        <route edges="B2B1 B1C1 C1B1"/>
    </vehicle>
    <vehicle id="252" depart="2016.00">
        <route edges="A0B0 B0C0 C0C1 C1D1"/>
    </vehicle>
    <vehicle id="253" depart="2024.00">
        <route edges="A2A3 A3B3 B3B2"/>
    </vehicle>
    <vehicle id="254" depart="2032.00">
        <route edges="A1A0 A0B0 B0B1 B1B2 B2B1"/>
    </vehicle>
    <vehicle id="255" depart="2040.00">
        <route edges="B0A0 A0A1 A1B1 B1B2"/>
    </vehicle>
    <vehicle id="256" depart="2048.00">
        <route edges="C3C2 C2B2 B2B1"/>
    </vehicle>
    <vehicle id="257" depart="2056.00">
        <route edges="C3C2 C2C1 C1C0 C0D0 D0D1"/>
    </vehicle>
    <vehicle id="258" depart="2064.00">
        <route edges="B0C0 C0C1 C1B1 B1A1 A1A2"/>
    </vehicle>
    <vehicle id="259" depart="2072.00">
        <route edges="A0A1 A1B1 B1C1 C1C0 C0C1"/>
    </vehicle>
    <vehicle id="260" depart="2080.00">
        <route edges="D3D2 D2C2 C2B2 B2B1 B1C1"/>
    </vehicle>
    <vehicle id="261" depart="2088.00">
        <route edges="C2B2 B2B3 B3C3 C3D3"/>
    </vehicle>
    <vehicle id="262" depart="2096.00">
        <route edges="C2B2 B2B3 B3C3 C3C2"/>
    </vehicle>
    <vehicle id="263" depart="2104.00">
        <route edges="D2D3 D3C3 C3B3 B3B2 B2A2 A2A3 A3B3"/>
    </vehicle>
    <vehicle id="264" depart="2112.00">
        <route edges="A0A1 A1A2 A2B2"/>
    </vehicle>
    <vehicle id="265" depart="2120.00">
        <route edges="A2A3 A3B3 B3C3 C3C2 C2C1"/>
    </vehicle>
    <vehicle id="266" depart="2128.00">
        <route edges="C1B1 B1B0 B0A0"/>
    </vehicle>
    <vehicle id="267" depart="2136.00">
        <route edges="C2C3 C3C2"/>
    </vehicle>
    <vehicle id="268" depart="2144.00">
        <route edges="A3A2 A2A1 A1B1 B1C1 C1C2"/>
    </vehicle>
    <vehicle id="269" depart="2152.00">
        <route edges="C3B3 B3A3 A3A2 A2A1"/>
    </vehicle>
    <vehicle id="270" depart="2160.00">
        <route edges="D0D1 D1D2 D2D3 D3C3"/>
    </vehicle>
    <vehicle id="271" depart="2168.00">
        <route edges="A2A1 A1A0 A0B0"/>
    </vehicle>
    <vehicle id="272" depart="2176.00">
        <route edges="B1B0 B0B1 B1B2 B2C2 C2C1"/>
    </vehicle>
    <vehicle id="273" depart="2184.00">
        <route edges="D2D3 D3C3 C3C2 C2B2 B2B3"/>
    </vehicle>
    <vehicle id="274" depart="2192.00">
        <route edges="C2D2 D2D1 D1C1 C1B1 B1A1 A1A2"/>
    </vehicle>
    <vehicle id="275" depart="2200.00">
        <route edges="C2C3 C3C2 C2C1 C1D1"/>
    </vehicle>
    <vehicle id="276" depart="2208.00">
        <route edges="A1B1 B1C1 C1C2 C2C3 C3D3"/>
    </vehicle>
    <vehicle id="277" depart="2216.00">
        <route edges="D1C1 C1C0"/>
    </vehicle>
    <vehicle id="278" depart="2224.00">
        <route edges="A2A1 A1B1 B1C1 C1C2 C2C3 C3D3 D3D2"/>
    </vehicle>
    <vehicle id="279" depart="2232.00">
        <route edges="C3D3 D3D2 D2C2 C2B2 B2B1 B1C1"/>
    </vehicle>
    <vehicle id="280" depart="2240.00">
        <route edges="B2C2 C2B2 B2A2"/>
    </vehicle>
    <vehicle id="281" depart="2248.00">
        <route edges="C0B0 B0B1 B1C1"/>
    </vehicle>
    <vehicle id="282" depart="2256.00">
        <route edges="D1C1 C1C0 C0D0 D0D1"/>
    </vehicle>
    <vehicle id="283" depart="2264.00">
        <route edges="A2A1 A1B1 B1C1 C1D1 D1D2 D2D3 D3C3"/>
    </vehicle>
    <vehicle id="284" depart="2272.00">
        <route edges="C1D1 D1C1 C1C0 C0D0 D0D1"/>
    </vehicle>
    <vehicle id="285" depart="2280.00">