<?xml version="1.0" encoding="UTF-8"?>

<!-- generated on 2025-11-25 19:24:59.879993 by Eclipse SUMO randomTrips.py v1_25_0+0000-ac6c5a6752d
<configuration>
    <net-file value="grid_sehir.net.xml"/>
    <route-file value="traffic.rou.xml"/>
    <fringe-factor value="10"/>
    <period value="8.0"/>
</configuration>
-->

<routes xmlns:xsi="http://www.w3.org/2001/XMLSchema-instance" xsi:noNamespaceSchemaLocation="http://sumo.dlr.de/xsd/routes_file.xsd">
    <trip id="0" depart="0.00" from="C1D1" to="A0B0"/>
    <trip id="1" depart="8.00" from="B1A1" to="B0A0"/>
    <trip id="2" depart="16.00" from="C3B3" to="C2C1"/>
    <trip id="3" depart="24.00" from="D1D2" to="A1B1"/>
    <trip id="4" depart="32.00" from="B2C2" to="A0B0"/>
    <trip id="5" depart="40.00" from="B0A0" to="C0B0"/>
    <trip id="6" depart="48.00" from="A0B0" to="A3B3"/>
    <trip id="7" depart="56.00" from="C2B2" to="C0D0"/>
    <trip id="8" depart="64.00" from="B0A0" to="C1C0"/>
    <trip id="9" depart="72.00" from="D0C0" to="A0A1"/>
    <trip id="10" depart="80.00" from="D0C0" to="C2C3"/>
    <trip id="11" depart="88.00" from="B1C1" to="A2B2"/>
    <trip id="12" depart="96.00" from="D2D3" to="B1C1"/>
    <trip id="13" depart="104.00" from="A1B1" to="A1B1"/>
    <trip id="14" depart="112.00" from="D1C1" to="C1C0"/>
    <trip id="15" depart="120.00" from="D0C0" to="C3B3"/>
    <trip id="16" depart="128.00" from="C0C1" to="D3C3"/>
    <trip id="17" depart="136.00" from="B2B1" to="C0D0"/>
    <trip id="18" depart="144.00" from="D0D1" to="C1C2"/>
    <trip id="19" depart="152.00" from="D1D0" to="C1B1"/>
    <trip id="20" depart="160.00" from="C2C3" to="A1A0"/>
    <trip id="21" depart="168.00" from="B0A0" to="B1A1"/>
    <trip id="22" depart="176.00" from="A1A2" to="B0B1"/>
    <trip id="23" depart="184.00" from="A1B1" to="B1A1"/>
    <trip id="24" depart="192.00" from="C1D1" to="B2A2"/>
    <trip id="25" depart="200.00" from="B2A2" to="B0A0"/>
    <trip id="26" depart="208.00" from="B0C0" to="D2D1"/>
    <trip id="27" depart="216.00" from="C2B2" to="C1C2"/>
    <trip id="28" depart="224.00" from="A3A2" to="C2D2"/>
    <trip id="29" depart="232.00" from="A2B2" to="B2B1"/>
    <trip id="30" depart="240.00" from="D3D2" to="C1D1"/>
    <trip id="31" depart="248.00" from="C0D0" to="C2C1"/>
    <trip id="32" depart="256.00" from="D1C1" to="C3D3"/>
    <trip id="33" depart="264.00" from="B0A0" to="A0B0"/>
    <trip id="34" depart="272.00" from="B1B2" to="B0C0"/>
    <trip id="35" depart="280.00" from="B0A0" to="D2D3"/>
    <trip id="36" depart="288.00" from="D1D2" to="B1B2"/>
    <trip id="37" depart="296.00" from="C2B2" to="B2B1"/>
    <trip id="38" depart="304.00" from="D2C2" to="B3B2"/>
    <trip id="39" depart="312.00" from="B0C0" to="B0B1"/>
    <trip id="40" depart="320.00" from="C0D0" to="B0C0"/>
    <trip id="41" depart="328.00" from="C1C0" to="D2C2"/>
    <trip id="42" depart="336.00" from="B2B3" to="B0A0"/>
    <trip id="43" depart="344.00" from="D3D2" to="C0B0"/>
    <trip id="44" depart="352.00" from="A1B1" to="A1A0"/>
    <trip id="45" depart="360.00" from="A2A1" to="C1D1"/>
    <trip id="46" depart="368.00" from="D0C0" to="B2C2"/>
    <trip id="47" depart="376.00" from="A1A2" to="B2B1"/>
    <trip id="48" depart="384.00" from="D3D2" to="C0C1"/>
    <trip id="49" depart="392.00" from="D3C3" to="D1D0"/>
    <trip id="50" depart="400.00" from="A0A1" to="C2D2"/>
    <trip id="51" depart="408.00" from="C2C1" to="C0C1"/>
    <trip id="52" depart="416.00" from="B0C0" to="C1D1"/>
    <trip id="53" depart="424.00" from="A2A1" to="B2C2"/>
    <trip id="54" depart="432.00" from="B3A3" to="D2D3"/>
    <trip id="55" depart="440.00" from="D1D2" to="B0C0"/>
    <trip id="56" depart="448.00" from="C0B0" to="A3A2"/>
    <trip id="57" depart="456.00" from="D2C2" to="D1D0"/>
    <trip id="58" depart="464.00" from="B1B0" to="C1D1"/>
    <trip id="59" depart="472.00" from="C1C2" to="A2B2"/>
    <trip id="60" depart="480.00" from="C3C2" to="C0C1"/>
    <trip id="61" depart="488.00" from="C3D3" to="C0C1"/>
    <trip id="62" depart="496.00" from="A0A1" to="B1B2"/>
    <trip id="63" depart="504.00" from="A0A1" to="D2D1"/>
    <trip id="64" depart="512.00" from="D1D2" to="D0D1"/>
    <trip id="65" depart="520.00" from="B1B0" to="A1A0"/>
    <trip id="66" depart="528.00" from="D1D2" to="D2D3"/>
    <trip id="67" depart="536.00" from="A1B1" to="B3C3"/>
    <trip id="68" depart="544.00" from="A1A2" to="C3C2"/>
    <trip id="69" depart="552.00" from="C3C2" to="A2A3"/>
    <trip id="70" depart="560.00" from="B3B2" to="C0D0"/>
    <trip id="71" depart="568.00" from="B0C0" to="D1D0"/>
    <trip id="72" depart="576.00" from="B2C2" to="B0A0"/>
    <trip id="73" depart="584.00" from="C0C1" to="C3B3"/>
    <trip id="74" depart="592.00" from="A3B3" to="B1B0"/>
    <trip id="75" depart="600.00" from="D3D2" to="C2B2"/>
    <trip id="76" depart="608.00" from="B3A3" to="C0B0"/>
    <trip id="77" depart="616.00" from="A2A1" to="B0A0"/>
    <trip id="78" depart="624.00" from="B1C1" to="C1C0"/>
    <trip id="79" depart="632.00" from="B0B1" to="B0A0"/>
    <trip id="80" depart="640.00" from="A1A2" to="C1D1"/>
    <trip id="81" depart="648.00" from="B0A0" to="D2C2"/>
    <trip id="82" depart="656.00" from="D1D0" to="A1A2"/>
    <trip id="83" depart="664.00" from="B0B1" to="C2C1"/>
    <trip id="84" depart="672.00" from="B0A0" to="A2A3"/>
    <trip id="85" depart="680.00" from="D2D1" to="C1B1"/>
    <trip id="86" depart="688.00" from="B3B2" to="C3D3"/>
    <trip id="87" depart="696.00" from="D0C0" to="A3B3"/>
    <trip id="88" depart="704.00" from="A1B1" to="B2C2"/>
    <trip id="89" depart="712.00" from="B2C2" to="B3B2"/>
    <trip id="90" depart="720.00" from="C2D2" to="C2C1"/>
    <trip id="91" depart="728.00" from="D3D2" to="A1B1"/>
    <trip id="92" depart="736.00" from="B2B3" to="B1C1"/>
    <trip id="93" depart="744.00" from="D1D0" to="B0B1"/>
    <trip id="94" depart="752.00" from="A3B3" to="B3A3"/>
    <trip id="95" depart="760.00" from="B2C2" to="B1A1"/>
    <trip id="96" depart="768.00" from="B0B1" to="D2D1"/>
    <trip id="97" depart="776.00" from="B3A3" to="D1D0"/>
    <trip id="98" depart="784.00" from="C0D0" to="A1A0"/>
    <trip id="99" depart="792.00" from="D3D2" to="D1C1"/>
    <trip id="100" depart="800.00" from="D3C3" to="D2D1"/>
    <trip id="101" depart="808.00" from="D1C1" to="A2B2"/>
    <trip id="102" depart="816.00" from="B3C3" to="B0A0"/>
    <trip id="103" depart="824.00" from="B2B3" to="A1A0"/>
    <trip id="104" depart="832.00" from="B2B1" to="D3D2"/>
    <trip id="105" depart="840.00" from="B0C0" to="C3D3"/>
    <trip id="106" depart="848.00" from="B3A3" to="B2C2"/>
    <trip id="107" depart="856.00" from="D2D3" to="D3D2"/>
    <trip id="108" depart="864.00" from="C0D0" to="C2D2"/>
    <trip id="109" depart="872.00" from="A2B2" to="B1B0"/>
    <trip id="110" depart="880.00" from="D3C3" to="C1B1"/>
    <trip id="111" depart="888.00" from="C0D0" to="C3B3"/>
    <trip id="112" depart="896.00" from="A1A0" to="C1C0"/>
    <trip id="113" depart="904.00" from="C0B0" to="D1C1"/>
    <trip id="114" depart="912.00" from="A2B2" to="D3C3"/>
    <trip id="115" depart="920.00" from="A1A2" to="A3A2"/>
    <trip id="116" depart="928.00" from="C1C0" to="C2C1"/>
    <trip id="117" depart="936.00" from="B0B1" to="A2A1"/>
    <trip id="118" depart="944.00" from="D1D2" to="B0B1"/>
    <trip id="119" depart="952.00" from="C1C0" to="C1C2"/>
    <trip id="120" depart="960.00" from="B2C2" to="C1C0"/>
    <trip id="121" depart="968.00" from="C0C1" to="D2D1"/>
    <trip id="122" depart="976.00" from="A3B3" to="C2D2"/>
    <trip id="123" depart="984.00" from="B0B1" to="B2B1"/>
    <trip id="124" depart="992.00" from="C2C1" to="B1B0"/>
    <trip id="125" depart="1000.00" from="B1B2" to="C3C2"/>
    <trip id="126" depart="1008.00" from="A1A2" to="B3A3"/>
    <trip id="127" depart="1016.00" from="D3D2" to="D3D2"/>
    <trip id="128" depart="1024.00" from="A1A2" to="B0A0"/>
    <trip id="129" depart="1032.00" from="B0C0" to="D2D1"/>
    <trip id="130" depart="1040.00" from="D1D2" to="D1D2"/>
    <trip id="131" depart="1048.00" from="B2A2" to="A2B2"/>
    <trip id="132" depart="1056.00" from="D1C1" to="C2C3"/>
    <trip id="133" depart="1064.00" from="C1C2" to="D3D2"/>
    <trip id="134" depart="1072.00" from="C2B2" to="A0A1"/>
    <trip id="135" depart="1080.00" from="D0D1" to="B1B0"/>
    <trip id="136" depart="1088.00" from="C2B2" to="D2D3"/>
    <trip id="137" depart="1096.00" from="A2A3" to="A2A1"/>
    <trip id="138" depart="1104.00" from="A2A1" to="C0D0"/>
    <trip id="139" depart="1112.00" from="B1A1" to="C1C2"/>
    <trip id="140" depart="1120.00" from="C2D2" to="A3B3"/>
    <trip id="141" depart="1128.00" from="C1D1" to="B0C0"/>
    <trip id="142" depart="1136.00" from="B3C3" to="D2C2"/>
    <trip id="143" depart="1144.00" from="D1C1" to="A1B1"/>
    <trip id="144" depart="1152.00" from="B2C2" to="B1A1"/>
    <trip id="145" depart="1160.00" from="A0A1" to="C3D3"/>
    <trip id="146" depart="1168.00" from="C1D1" to="B0C0"/>
    <trip id="147" depart="1176.00" from="C3B3" to="C0D0"/>
    <trip id="148" depart="1184.00" from="B2C2" to="A0A1"/>
    <trip id="149" depart="1192.00" from="A1A2" to="D1D2"/>
    <trip id="150" depart="1200.00" from="D2C2" to="C0D0"/>
    <trip id="151" depart="1208.00" from="D1C1" to="C1B1"/>
    <trip id="152" depart="1216.00" from="A2B2" to="A2A3"/>
    <trip id="153" depart="1224.00" from="B1B0" to="D2C2"/>
    <trip id="154" depart="1232.00" from="D0C0" to="D1D0"/>
    <trip id="155" depart="1240.00" from="D2C2" to="B0A0"/>
    <trip id="156" depart="1248.00" from="B0B1" to="A1B1"/>
    <trip id="157" depart="1256.00" from="C3D3" to="D1D2"/>
    <trip id="158" depart="1264.00" from="B2B3" to="C1C2"/>
    <trip id="159" depart="1272.00" from="A2B2" to="D2D1"/>
    <trip id="160" depart="1280.00" from="D1D0" to="D3C3"/>
    <trip id="161" depart="1288.00" from="D0C0" to="D1D2"/>
    <trip id="162" depart="1296.00" from="A0B0" to="C3B3"/>
    <trip id="163" depart="1304.00" from="B1B2" to="D2D1"/>
    <trip id="164" depart="1312.00" from="D0C0" to="D1D0"/>
    <trip id="165" depart="1320.00" from="D0C0" to="B0C0"/>
    <trip id="166" depart="1328.00" from="C3D3" to="A2A1"/>
    <trip id="167" depart="1336.00" from="D1D0" to="D1D0"/>
    <trip id="168" depart="1344.00" from="B0A0" to="D0D1"/>
    <trip id="169" depart="1352.00" from="B3B2" to="B1B0"/>
    <trip id="170" depart="1360.00" from="D0C0" to="B0A0"/>
    <trip id="171" depart="1368.00" from="A0B0" to="A3B3"/>
    <trip id="172" depart="1376.00" from="B1B2" to="D1D0"/>
    <trip id="173" depart="1384.00" from="D3C3" to="B1A1"/>
    <trip id="174" depart="1392.00" from="C1D1" to="B2B3"/>
    <trip id="175" depart="1400.00" from="D3D2" to="C0C1"/>
    <trip id="176" depart="1408.00" from="D2D3" to="A2A1"/>
    <trip id="177" depart="1416.00" from="D3C3" to="A3A2"/>
    <trip id="178" depart="1424.00" from="D3C3" to="B0C0"/>
    <trip id="179" depart="1432.00" from="A2A1" to="B2C2"/>
    <trip id="180" depart="1440.00" from="C2D2" to="B1B2"/>
    <trip id="181" depart="1448.00" from="C1C2" to="C0B0"/>
    <trip id="182" depart="1456.00" from="B2B1" to="C1B1"/>
    <trip id="183" depart="1464.00" from="B0C0" to="C2D2"/>
    <trip id="184" depart="1472.00" from="A0A1" to="D2D1"/>
    <trip id="185" depart="1480.00" from="C0C1" to="C2D2"/>
    <trip id="186" depart="1488.00" from="C3B3" to="C2C1"/>
    <trip id="187" depart="1496.00" from="B2A2" to="A1A2"/>
    <trip id="188" depart="1504.00" from="C2B2" to="B1B2"/>
    <trip id="189" depart="1512.00" from="B1B2" to="D1C1"/>
    <trip id="190" depart="1520.00" from="C2D2" to="B1B0"/>
    <trip id="191" depart="1528.00" from="B1B0" to="B2B3"/>
    <trip id="192" depart="1536.00" from="B2B3" to="B1B0"/>
    <trip id="193" depart="1544.00" from="A2A3" to="B2C2"/>
    <trip id="194" depart="1552.00" from="D2D3" to="C2C1"/>
    <trip id="195" depart="1560.00" from="D2C2" to="C1C2"/>
    <trip id="196" depart="1568.00" from="B1B0" to="C0D0"/>
    <trip id="197" depart="1576.00" from="A0A1" to="B1A1"/>
    <trip id="198" depart="1584.00" from="B2C2" to="C1B1"/>
    <trip id="199" depart="1592.00" from="C2B2" to="B3B2"/>
    <trip id="200" depart="1600.00" from="B3A3" to="B0A0"/>
    <trip id="201" depart="1608.00" from="B3B2" to="D2C2"/>
    <trip id="202" depart="1616.00" from="D0C0" to="A3A2"/>
    <trip id="203" depart="1624.00" from="A1B1" to="C0B0"/>
    <trip id="204" depart="1632.00" from="C1D1" to="B1C1"/>
    <trip id="205" depart="1640.00" from="D0D1" to="C3C2"/>
    <trip id="206" depart="1648.00" from="C2C1" to="B0A0"/>
    <trip id="207" depart="1656.00" from="A3B3" to="A0B0"/>
    <trip id="208" depart="1664.00" from="B0B1" to="B3B2"/>
    <trip id="209" depart="1672.00" from="D1C1" to="A1A2"/>
    <trip id="210" depart="1680.00" from="B2B3" to="C1D1"/>
    <trip id="211" depart="1688.00" from="A3B3" to="C2C3"/>
    <trip id="212" depart="1696.00" from="B3C3" to="B0B1"/>
    <trip id="213" depart="1704.00" from="C2B2" to="A0A1"/>
    <trip id="214" depart="1712.00" from="C3C2" to="C3C2"/>
    <trip id="215" depart="1720.00" from="A2A1" to="B2C2"/>
    <trip id="216" depart="1728.00" from="A3A2" to="D2D3"/>
    <trip id="217" depart="1736.00" from="C0B0" to="A1A0"/>
    <trip id="218" depart="1744.00" from="B0B1" to="D1C1"/>
    <trip id="219" depart="1752.00" from="B3A3" to="D0C0"/>
    <trip id="220" depart="1760.00" from="C2C1" to="D3D2"/>
    <trip id="221" depart="1768.00" from="C1C0" to="D2D3"/>
    <trip id="222" depart="1776.00" from="D1D2" to="C1C2"/>
    <trip id="223" depart="1784.00" from="C2D2" to="C0B0"/>
    <trip id="224" depart="1792.00" from="D0D1" to="C0D0"/>
    <trip id="225" depart="1800.00" from="D2C2" to="C3B3"/>
    <trip id="226" depart="1808.00" from="B3B2" to="B0C0"/>
    <trip id="227" depart="1816.00" from="B0B1" to="C1D1"/>
    <trip id="228" depart="1824.00" from="C3C2" to="C0C1"/>
    <trip id="229" depart="1832.00" from="C1D1" to="B1A1"/>
    <trip id="230" depart="1840.00" from="A1A2" to="B1A1"/>
    <trip id="231" depart="1848.00" from="B1A1" to="B1B2"/>
    <trip id="232" depart="1856.00" from="C0C1" to="A2A3"/>
    <trip id="233" depart="1864.00" from="B0B1" to="C2C3"/>
    <trip id="234" depart="1872.00" from="C2C3" to="A1A2"/>
    <trip id="235" depart="1880.00" from="B2B3" to="C0D0"/>
    <trip id="236" depart="1888.00" from="B2B3" to="A3B3"/>
    <trip id="237" depart="1896.00" from="B2C2" to="D2C2"/>
    <trip id="238" depart="1904.00" from="C1C0" to="C2C3"/>
    <trip id="239" depart="1912.00" from="D1D0" to="C3C2"/>
    <trip id="240" depart="1920.00" from="B2B1" to="A0A1"/>
    <trip id="241" depart="1928.00" from="B1C1" to="C3C2"/>
    <trip id="242" depart="1936.00" from="D1C1" to="D2D3"/>
    <trip id="243" depart="1944.00" from="B2C2" to="C3B3"/>
    <trip id="244" depart="1952.00" from="C0D0" to="C1C0"/>
    <trip id="245" depart="1960.00" from="B0A0" to="B0A0"/>
    <trip id="246" depart="1968.00" from="B2C2" to="A0B0"/>
    <trip id="247" depart="1976.00" from="B1C1" to="C2C1"/>
    <trip id="248" depart="1984.00" from="B2B3" to="A2B2"/>
    <trip id="249" depart="1992.00" from="B3B2" to="A2A3"/>
    <trip id="250" depart="2000.00" from="C1C2" to="A0B0"/>
    <trip id="251" depart="2008.00" from="B2B1" to="C1B1"/>
    <trip id="252" depart="2016.00" from="A0B0" to="C1D1"/>
    <trip id="253" depart="2024.00" from="A2A3" to="B3B2"/>
    <trip id="254" depart="2032.00" from="A1A0" to="B2B1"/>
    <trip id="255" depart="2040.00" from="B0A0" to="B1B2"/>
    <trip id="256" depart="2048.00" from="C3C2" to="B2B1"/>
    <trip id="257" depart="2056.00" from="C3C2" to="D0D1"/>
    <trip id="258" depart="2064.00" from="B0C0" to="A1A2"/>
    <trip id="259" depart="2072.00" from="A0A1" to="C0C1"/>
    <trip id="260" depart="2080.00" from="D3D2" to="B1C1"/>
    <trip id="261" depart="2088.00" from="C2B2" to="C3D3"/>
    <trip id="262" depart="2096.00" from="C2B2" to="C3C2"/>
    <trip id="263" depart="2104.00" from="D2D3" to="A3B3"/>
    <trip id="264" depart="2112.00" from="A0A1" to="A2B2"/>
    <trip id="265" depart="2120.00" from="A2A3" to="C2C1"/>
    <trip id="266" depart="2128.00" from="C1B1" to="B0A0"/>
    <trip id="267" depart="2136.00" from="C2C3" to="C3C2"/>
    <trip id="268" depart="2144.00" from="A3A2" to="C1C2"/>
    <trip id="269" depart="2152.00" from="C3B3" to="A2A1"/>
    <trip id="270" depart="2160.00" from="D0D1" to="D3C3"/>
    <trip id="271" depart="2168.00" from="A2A1" to="A0B0"/>
    <trip id="272" depart="2176.00" from="B1B0" to="C2C1"/>
    <trip id="273" depart="2184.00" from="D2D3" to="B2B3"/>
    <trip id="274" depart="2192.00" from="C2D2" to="A1A2"/>
    <trip id="275" depart="2200.00" from="C2C3" to="C1D1"/>
    <trip id="276" depart="2208.00" from="A1B1" to="C3D3"/>
    <trip id="277" depart="2216.00" from="D1C1" to="C1C0"/>
    <trip id="278" depart="2224.00" from="A2A1" to="D3D2"/>
    <trip id="279" depart="2232.00" from="C3D3" to="B1C1"/>
    <trip id="280" depart="2240.00" from="B2C2" to="B2A2"/>
    <trip id="281" depart="2248.00" from="C0B0" to="B1C1"/>
    <trip id="282" depart="2256.00" from="D1C1" to="D0D1"/>
    <trip id="283" depart="2264.00" from="A2A1" to="D3C3"/>
    <trip id="284" depart="2272.00" from="C1D1" to="D0D1"/>
    <trip id="285" depart="2280.00" from="C2C3" to="B2C2"/>
    <trip id="286" depart="2288.00" from="C3B3" to="D3C3"/>
    <trip id="287" depart="2296.00" from="B0C0" to="D0C0"/>
    <trip id="288" depart="2304.00" from="C0C1" to="B3C3"/>
    <trip id="289" depart="2312.00" from="B2C2" to="C3B3"/>
    <trip id="290" depart="2320.00" from="B0C0" to="D1C1"/>
    <trip id="291" depart="2328.00" from="D0D1" to="A1B1"/>
    <trip id="292" depart="2336.00" from="D1D2" to="B0B1"/>
    <trip id="293" depart="2344.00" from="B3B2" to="C1C2"/>
    <trip id="294" depart="2352.00" from="B2B1" to="A0B0"/>
    <trip id="295" depart="2360.00" from="D1C1" to="A3A2"/>
    <trip id="296" depart="2368.00" from="B0A0" to="D0C0"/>
    <trip id="297" depart="2376.00" from="B1C1" to="D1D2"/>
    <trip id="298" depart="2384.00" from="C2C3" to="B1A1"/>
    <trip id="299" depart="2392.00" from="A0A1" to="D2D3"/>
    <trip id="300" depart="2400.00" from="A1B1" to="C2D2"/>
    <trip id="301" depart="2408.00" from="B3C3" to="C3C2"/>
    <trip id="302" depart="2416.00" from="C2C3" to="C2B2"/>
    <trip id="303" depart="2424.00" from="B3C3" to="D0C0"/>
    <trip id="304" depart="2432.00" from="A1B1" to="B0A0"/>
    <trip id="305" depart="2440.00" from="C2C3" to="B1B0"/>
    <trip id="306" depart="2448.00" from="C1B1" to="B3B2"/>
    <trip id="307" depart="2456.00" from="C0C1" to="B2C2"/>
    <trip id="308" depart="2464.00" from="C3B3" to="B1B2"/>
    <trip id="309" depart="2472.00" from="C2C3" to="B1A1"/>
    <trip id="310" depart="2480.00" from="B0C0" to="A2A1"/>
    <trip id="311" depart="2488.00" from="A3B3" to="A2A1"/>
    <trip id="312" depart="2496.00" from="C0C1" to="C3C2"/>
    <trip id="313" depart="2504.00" from="A3A2" to="B0A0"/>
    <trip id="314" depart="2512.00" from="B3C3" to="C2D2"/>
    <trip id="315" depart="2520.00" from="D3C3" to="C0C1"/>
    <trip id="316" depart="2528.00" from="B1A1" to="A1B1"/>
    <trip id="317" depart="2536.00" from="A3B3" to="B0A0"/>
    <trip id="318" depart="2544.00" from="A3A2" to="A0A1"/>
    <trip id="319" depart="2552.00" from="C0C1" to="B1A1"/>
    <trip id="320" depart="2560.00" from="D3C3" to="C0D0"/>
    <trip id="321" depart="2568.00" from="C2C3" to="A2A3"/>
    <trip id="322" depart="2576.00" from="D1D0" to="B3C3"/>
    <trip id="323" depart="2584.00" from="D1D0" to="C1B1"/>
    <trip id="324" depart="2592.00" from="B3B2" to="B3A3"/>
    <trip id="325" depart="2600.00" from="A3A2" to="A1A0"/>
    <trip id="326" depart="2608.00" from="D2D3" to="B3B2"/>
    <trip id="327" depart="2616.00" from="D0D1" to="B2B3"/>
    <trip id="328" depart="2624.00" from="A1A2" to="C1D1"/>
    <trip id="329" depart="2632.00" from="A1A0" to="A2B2"/>
    <trip id="330" depart="2640.00" from="C1B1" to="B1B0"/>
    <trip id="331" depart="2648.00" from="D3D2" to="A2A1"/>
    <trip id="332" depart="2656.00" from="C3C2" to="C1C2"/>
    <trip id="333" depart="2664.00" from="C3D3" to="B0A0"/>
    <trip id="334" depart="2672.00" from="C0C1" to="B3A3"/>
    <trip id="335" depart="2680.00" from="B3A3" to="D1D0"/>
    <trip id="336" depart="2688.00" from="D3D2" to="B1B0"/>
    <trip id="337" depart="2696.00" from="C1C2" to="C1C2"/>
    <trip id="338" depart="2704.00" from="C3B3" to="D2D3"/>
    <trip id="339" depart="2712.00" from="A3B3" to="B0A0"/>
    <trip id="340" depart="2720.00" from="C2B2" to="A2B2"/>
    <trip id="341" depart="2728.00" from="A3A2" to="A1A2"/>
    <trip id="342" depart="2736.00" from="A0A1" to="B3A3"/>
    <trip id="343" depart="2744.00" from="C1C0" to="B1A1"/>
    <trip id="344" depart="2752.00" from="B0B1" to="C2C3"/>
    <trip id="345" depart="2760.00" from="C2C3" to="B3A3"/>
    <trip id="346" depart="2768.00" from="C2C1" to="D2D1"/>
    <trip id="347" depart="2776.00" from="C3D3" to="C1D1"/>
    <trip id="348" depart="2784.00" from="C2B2" to="D2D1"/>
    <trip id="349" depart="2792.00" from="B2C2" to="C0D0"/>
    <trip id="350" depart="2800.00" from="C2B2" to="D2C2"/>
    <trip id="351" depart="2808.00" from="D0D1" to="A1A2"/>
    <trip id="352" depart="2816.00" from="A2B2" to="B1B0"/>
    <trip id="353" depart="2824.00" from="C3B3" to="C1B1"/>
    <trip id="354" depart="2832.00" from="B1A1" to="A2A1"/>
    <trip id="355" depart="2840.00" from="C2C3" to="C2C3"/>
    <trip id="356" depart="2848.00" from="D2D3" to="C0B0"/>
    <trip id="357" depart="2856.00" from="B3C3" to="A1A2"/>
    <trip id="358" depart="2864.00" from="A0B0" to="B2C2"/>
    <trip id="359" depart="2872.00" from="B1B2" to="B0C0"/>
    <trip id="360" depart="2880.00" from="A1B1" to="D3C3"/>
    <trip id="361" depart="2888.00" from="D1C1" to="C1B1"/>
    <trip id="362" depart="2896.00" from="D2D3" to="D3D2"/>
    <trip id="363" depart="2904.00" from="C2C1" to="B0C0"/>
    <trip id="364" depart="2912.00" from="A0B0" to="C3C2"/>
    <trip id="365" depart="2920.00" from="B3B2" to="C2B2"/>
    <trip id="366" depart="2928.00" from="D2C2" to="A3A2"/>
    <trip id="367" depart="2936.00" from="C1C0" to="C1D1"/>
    <trip id="368" depart="2944.00" from="B3C3" to="A1B1"/>
    <trip id="369" depart="2952.00" from="B1C1" to="B1B2"/>
    <trip id="370" depart="2960.00" from="C2C1" to="D1D0"/>
    <trip id="371" depart="2968.00" from="B1B2" to="C2C3"/>
    <trip id="372" depart="2976.00" from="B1A1" to="D2D3"/>
    <trip id="373" depart="2984.00" from="D0D1" to="C0D0"/>
    <trip id="374" depart="2992.00" from="B3A3" to="B1B2"/>
    <trip id="375" depart="3000.00" from="B1B2" to="D3C3"/>
    <trip id="376" depart="3008.00" from="B2B3" to="C0B0"/>
    <trip id="377" depart="3016.00" from="D3D2" to="C2B2"/>
    <trip id="378" depart="3024.00" from="C0D0" to="B2B3"/>
    <trip id="379" depart="3032.00" from="A3B3" to="B2A2"/>
    <trip id="380" depart="3040.00" from="C3C2" to="C1D1"/>
    <trip id="381" depart="3048.00" from="C3C2" to="A3B3"/>
    <trip id="382" depart="3056.00" from="C0D0" to="D2D1"/>
    <trip id="383" depart="3064.00" from="B3A3" to="C2C3"/>
    <trip id="384" depart="3072.00" from="A2A1" to="D3C3"/>
    <trip id="385" depart="3080.00" from="C1C2" to="B0B1"/>
    <trip id="386" depart="3088.00" from="A2B2" to="C0D0"/>
    <trip id="387" depart="3096.00" from="C0D0" to="A1B1"/>
    <trip id="388" depart="3104.00" from="D3D2" to="D2C2"/>
    <trip id="389" depart="3112.00" from="B3B2" to="A2A1"/>
    <trip id="390" depart="3120.00" from="D0D1" to="B3C3"/>
    <trip id="391" depart="3128.00" from="C2D2" to="C0B0"/>
    <trip id="392" depart="3136.00" from="B1A1" to="D1C1"/>
    <trip id="393" depart="3144.00" from="D3D2" to="B0B1"/>
    <trip id="394" depart="3152.00" from="C0D0" to="B2B1"/>
    <trip id="395" depart="3160.00" from="D2D1" to="C0B0"/>
    <trip id="396" depart="3168.00" from="D1D2" to="D1D0"/>
    <trip id="397" depart="3176.00" from="B1A1" to="C3D3"/>
    <trip id="398" depart="3184.00" from="B2B3" to="D2D1"/>
    <trip id="399" depart="3192.00" from="C0B0" to="D0D1"/>
    <trip id="400" depart="3200.00" from="B1A1" to="B1B0"/>
    <trip id="401" depart="3208.00" from="C1C0" to="D3D2"/>
    <trip id="402" depart="3216.00" from="B3C3" to="A2B2"/>
    <trip id="403" depart="3224.00" from="C0C1" to="B1C1"/>
    <trip id="404" depart="3232.00" from="C0D0" to="C0D0"/>
    <trip id="405" depart="3240.00" from="B3A3" to="B1B2"/>
    <trip id="406" depart="3248.00" from="A3B3" to="C2C3"/>
    <trip id="407" depart="3256.00" from="C1B1" to="B0B1"/>
    <trip id="408" depart="3264.00" from="C3D3" to="A1A0"/>
    <trip id="409" depart="3272.00" from="C3B3" to="C2C3"/>
    <trip id="410" depart="3280.00" from="D0C0" to="B2B1"/>
    <trip id="411" depart="3288.00" from="C2B2" to="D0D1"/>
    <trip id="412" depart="3296.00" from="D3D2" to="B3C3"/>
    <trip id="413" depart="3304.00" from="A0B0" to="C0B0"/>
    <trip id="414" depart="3312.00" from="C1C0" to="D1D0"/>
    <trip id="415" depart="3320.00" from="D1D0" to="B3A3"/>
    <trip id="416" depart="3328.00" from="C0C1" to="B3A3"/>
    <trip id="417" depart="3336.00" from="C2D2" to="B2B3"/>
    <trip id="418" depart="3344.00" from="C2B2" to="A2B2"/>
    <trip id="419" depart="3352.00" from="B3B2" to="D3C3"/>
    <trip id="420" depart="3360.00" from="B1C1" to="C2C3"/>
    <trip id="421" depart="3368.00" from="C2B2" to="D1C1"/>
    <trip id="422" depart="3376.00" from="D1C1" to="D1D0"/>
    <trip id="423" depart="3384.00" from="B2B1" to="B1B2"/>
    <trip id="424" depart="3392.00" from="C2D2" to="C3C2"/>
    <trip id="425" depart="3400.00" from="D1D0" to="A0B0"/>
    <trip id="426" depart="3408.00" from="A1A2" to="C1D1"/>
    <trip id="427" depart="3416.00" from="D2D1" to="D3D2"/>
    <trip id="428" depart="3424.00" from="C3B3" to="B2C2"/>
    <trip id="429" depart="3432.00" from="A1B1" to="C1D1"/>
    <trip id="430" depart="3440.00" from="D1D0" to="B3A3"/>
    <trip id="431" depart="3448.00" from="C2C3" to="D2C2"/>
    <trip id="432" depart="3456.00" from="A1A0" to="D0C0"/>
    <trip id="433" depart="3464.00" from="B1B0" to="B2A2"/>
    <trip id="434" depart="3472.00" from="A2A3" to="C0C1"/>
    <trip id="435" depart="3480.00" from="C1B1" to="D0C0"/>
    <trip id="436" depart="3488.00" from="A3A2" to="A1A2"/>
    <trip id="437" depart="3496.00" from="D1D0" to="C1C2"/>
    <trip id="438" depart="3504.00" from="B0B1" to="D2C2"/>
    <trip id="439" depart="3512.00" from="A2A3" to="B3B2"/>
    <trip id="440" depart="3520.00" from="B0C0" to="B0C0"/>
    <trip id="441" depart="3528.00" from="A0A1" to="D0C0"/>
    <trip id="442" depart="3536.00" from="D2C2" to="C2C1"/>
    <trip id="443" depart="3544.00" from="A2B2" to="B3A3"/>
    <trip id="444" depart="3552.00" from="B1C1" to="C1C0"/>
    <trip id="445" depart="3560.00" from="C1D1" to="B2C2"/>
    <trip id="446" depart="3568.00" from="B0C0" to="D1C1"/>
    <trip id="447" depart="3576.00" from="A3B3" to="B2B1"/>
    <trip id="448" depart="3584.00" from="B3C3" to="B0B1"/>
    <trip id="449" depart="3592.00" from="C1B1" to="C1B1"/>
</routes>
