<?xml version="1.0" encoding="UTF-8"?>

<!-- generated on 2026-01-21 12:24:49.338837 by Eclipse SUMO randomTrips.py v1_25_0+0000-ac6c5a6752d
<configuration>
    <net-file value="solo.net.xml"/>
    <route-file value="low.rou.xml"/>
    <fringe-factor value="10"/>
    <period value="7.0"/>
</configuration>
-->

<!-- generated on 2026-01-21T12:24:49.265637+03:00 by Eclipse SUMO duarouter 1.25.0
<duarouterConfiguration xmlns:xsi="http://www.w3.org/2001/XMLSchema-instance" xsi:noNamespaceSchemaLocation="http://sumo.dlr.de/xsd/duarouterConfiguration.xsd">

    <input>
        <net-file value="solo.net.xml"/>
        <route-files value="trips.trips.xml"/>
    </input>

    <output>
        <output-file value="low.rou.xml"/>
        <alternatives-output value="NUL"/>
    </output>

    <time>
        <begin value="0"/>
        <end value="3600.0"/>
    </time>

    <report>
        <no-warnings value="true"/>
        <ignore-errors value="true"/>
        <no-step-log value="true"/>
    </report>

</duarouterConfiguration>
-->

<routes xmlns:xsi="http://www.w3.org/2001/XMLSchema-instance" xsi:noNamespaceSchemaLocation="http://sumo.dlr.de/xsd/routes_file.xsd">
    <vehicle id="0" depart="0.00">
        <route edges="B2B1 B1B0 B0A0 A0A1"/>
    </vehicle>
    <vehicle id="1" depart="7.00">
        <route edges="A2B2 B2C2 C2C1 C1B1 B1B2 B2A2 A2A1"/>
    </vehicle>
    <vehicle id="2" depart="14.00">
        <route edges="C0B0 B0B1 B1B2 B2C2"/>
    </vehicle>
    <vehicle id="3" depart="21.00">
        <route edges="C1C2 C2B2 B2A2 A2A1 A1A0"/>
    </vehicle>
    <vehicle id="4" depart="28.00">
        <route edges="B1A1 A1A2 A2B2 B2B1 B1B0 B0A0 A0A1"/>
    </vehicle>
    <vehicle id="5" depart="35.00">
        <route edges="A2A1 A1B1 B1B2"/>
    </vehicle>
    <vehicle id="6" depart="42.00">
        <route edges="A0A1 A1B1"/>
    </vehicle>
    <vehicle id="7" depart="49.00">
        <route edges="B2B1 B1C1"/>
    </vehicle>
    <vehicle id="8" depart="56.00">
        <route edges="A2A1 A1B1 B1B2 B2A2"/>
    </vehicle>
    <vehicle id="9" depart="63.00">
        <route edges="C1B1 B1B0 B0A0 A0A1"/>
    </vehicle>
    <vehicle id="10" depart="70.00">
        <route edges="C1B1 B1B2 B2C2"/>
    </vehicle>
    <vehicle id="11" depart="77.00">
        <route edges="B0B1 B1A1 A1A2"/>
    </vehicle>
    <vehicle id="12" depart="84.00">
        <route edges="C2B2 B2A2 A2A1 A1A0 A0B0 B0B1"/>
    </vehicle>
    <vehicle id="13" depart="91.00">
        <route edges="A1A0"/>
    </vehicle>
    <vehicle id="14" depart="98.00">
        <route edges="C1C0 C0B0 B0B1 B1B2 B2A2"/>
    </vehicle>
    <vehicle id="15" depart="105.00">
        <route edges="C1B1 B1B2 B2C2 C2C1 C1C0 C0B0"/>
    </vehicle>
    <vehicle id="16" depart="112.00">
        <route edges="B1B2 B2C2 C2C1"/>
    </vehicle>
    <vehicle id="17" depart="119.00">
        <route edges="B0C0 C0C1 C1C2 C2B2 B2B1 B1C1"/>
    </vehicle>
    <vehicle id="18" depart="126.00">
        <route edges="C1B1 B1B2 B2A2"/>
    </vehicle>
    <vehicle id="19" depart="133.00">
        <route edges="C1C0 C0B0 B0B1 B1C1"/>
    </vehicle>
    <vehicle id="20" depart="140.00">
        <route edges="B2C2 C2C1 C1B1 B1A1 A1A0 A0B0"/>
    </vehicle>
    <vehicle id="21" depart="147.00">
        <route edges="A2A1 A1B1 B1B0 B0A0 A0A1 A1A2 A2B2"/>
    </vehicle>
    <vehicle id="22" depart="154.00">
        <route edges="A0B0 B0B1 B1B2 B2A2 A2A1"/>
    </vehicle>
    <vehicle id="23" depart="161.00">
        <route edges="A1A0 A0B0 B0B1 B1A1 A1A2 A2B2"/>
    </vehicle>
    <vehicle id="24" depart="168.00">
        <route edges="B2B1 B1C1 C1C0 C0B0 B0B1"/>
    </vehicle>
    <vehicle id="25" depart="175.00">
        <route edges="B0B1 B1B2 B2A2 A2A1"/>
    </vehicle>
    <vehicle id="26" depart="182.00">
        <route edges="A2B2 B2B1 B1C1 C1C2 C2B2"/>
    </vehicle>
    <vehicle id="27" depart="189.00">
        <route edges="B2B1 B1C1 C1C2 C2B2 B2A2"/>
    </vehicle>
    <vehicle id="28" depart="196.00">
        <route edges="A1B1 B1C1 C1C0 C0B0"/>
    </vehicle>
    <vehicle id="29" depart="203.00">
        <route edges="A1A2 A2B2 B2B1 B1B0 B0C0"/>
    </vehicle>
    <vehicle id="30" depart="210.00">
        <route edges="C2C1 C1B1 B1A1 A1A2 A2B2 B2B1"/>
    </vehicle>
    <vehicle id="31" depart="217.00">
        <route edges="B1C1 C1C0 C0B0 B0B1 B1B2 B2C2"/>
    </vehicle>
    <vehicle id="32" depart="224.00">
        <route edges="C1C0 C0B0 B0A0 A0A1 A1B1 B1B0 B0C0 C0C1"/>
    </vehicle>
    <vehicle id="33" depart="231.00">
        <route edges="A2A1 A1B1 B1B0 B0A0 A0A1"/>
    </vehicle>
    <vehicle id="34" depart="238.00">
        <route edges="B0A0 A0A1 A1A2 A2B2"/>
    </vehicle>
    <vehicle id="35" depart="245.00">
        <route edges="A2A1 A1B1 B1C1 C1C2 C2B2"/>
    </vehicle>
    <vehicle id="36" depart="252.00">
        <route edges="C1C2 C2B2 B2B1 B1B0 B0A0"/>
    </vehicle>
    <vehicle id="37" depart="259.00">
        <route edges="B2B1 B1B0 B0C0"/>
    </vehicle>
    <vehicle id="38" depart="266.00">
        <route edges="C1C2 C2B2 B2B1 B1B0"/>
    </vehicle>
    <vehicle id="39" depart="273.00">
        <route edges="A2B2 B2C2 C2C1 C1B1 B1B2 B2A2 A2A1"/>
    </vehicle>
    <vehicle id="40" depart="280.00">
        <route edges="B1C1 C1C0 C0B0 B0A0 A0A1 A1A2 A2B2"/>
    </vehicle>
    <vehicle id="41" depart="287.00">
        <route edges="B2A2 A2A1 A1B1 B1C1 C1C2"/>
    </vehicle>
    <vehicle id="42" depart="294.00">
        <route edges="B0C0 C0C1 C1C2 C2B2 B2A2 A2A1"/>
    </vehicle>
    <vehicle id="43" depart="301.00">
        <route edges="C2C1 C1B1 B1B2"/>
    </vehicle>
    <vehicle id="44" depart="308.00">
        <route edges="A1A0 A0B0"/>
    </vehicle>
    <vehicle id="45" depart="315.00">
        <route edges="A1A0 A0B0 B0C0 C0C1 C1C2 C2B2 B2B1"/>
    </vehicle>
    <vehicle id="46" depart="322.00">
        <route edges="C1B1 B1A1"/>
    </vehicle>
    <vehicle id="47" depart="329.00">
        <route edges="A0B0 B0C0"/>
    </vehicle>
    <vehicle id="48" depart="336.00">
        <route edges="C2C1 C1B1 B1B2"/>
    </vehicle>
    <vehicle id="49" depart="343.00">
        <route edges="C2C1 C1C0"/>
    </vehicle>
    <vehicle id="50" depart="350.00">
        <route edges="A0A1 A1B1 B1C1 C1C0 C0B0"/>
    </vehicle>
    <vehicle id="51" depart="357.00">
        <route edges="B2C2 C2C1 C1B1 B1B2"/>
    </vehicle>
    <vehicle id="52" depart="364.00">
        <route edges="A2B2 B2B1"/>
    </vehicle>
    <vehicle id="53" depart="371.00">
        <route edges="A1A0 A0B0 B0B1 B1A1"/>
    </vehicle>
    <vehicle id="54" depart="378.00">
        <route edges="B1A1 A1A0 A0B0 B0C0 C0C1 C1C2 C2B2"/>
    </vehicle>
    <vehicle id="55" depart="385.00">
        <route edges="C1C2 C2B2 B2B1 B1A1 A1A2 A2B2"/>
    </vehicle>
    <vehicle id="56" depart="392.00">
        <route edges="B1B2 B2A2 A2A1 A1B1"/>
    </vehicle>
    <vehicle id="57" depart="399.00">
        <route edges="C1C2 C2B2 B2B1 B1C1 C1C0"/>
    </vehicle>
    <vehicle id="58" depart="406.00">
        <route edges="B0A0 A0A1 A1A2 A2B2 B2B1"/>
    </vehicle>
    <vehicle id="59" depart="413.00">
        <route edges="B2A2 A2A1 A1B1 B1B0 B0A0 A0A1 A1A2"/>
    </vehicle>
    <vehicle id="60" depart="420.00">
        <route edges="C0C1 C1B1 B1B2"/>
    </vehicle>
    <vehicle id="61" depart="427.00">
        <route edges="C0C1 C1B1 B1B2"/>
    </vehicle>
    <vehicle id="62" depart="434.00">
        <route edges="A0A1 A1B1 B1B0 B0A0"/>
    </vehicle>
    <vehicle id="63" depart="441.00">
        <route edges="A0A1 A1B1 B1C1 C1C2 C2B2"/>
    </vehicle>
    <vehicle id="64" depart="448.00">
        <route edges="C1C2 C2B2 B2B1 B1B0 B0C0 C0C1 C1B1"/>
    </vehicle>
    <vehicle id="65" depart="455.00">
        <route edges="B0A0 A0A1 A1A2 A2B2 B2B1 B1A1 A1A0 A0B0"/>
    </vehicle>
    <vehicle id="66" depart="462.00">
        <route edges="C1C2 C2B2"/>
    </vehicle>
    <vehicle id="67" depart="469.00">
        <route edges="A1A0 A0B0 B0C0 C0C1 C1B1 B1B0"/>
    </vehicle>
    <vehicle id="68" depart="476.00">
        <route edges="A0B0 B0C0 C0C1"/>
    </vehicle>
    <vehicle id="69" depart="483.00">
        <route edges="C0C1 C1B1 B1A1 A1A2"/>
    </vehicle>
    <vehicle id="70" depart="490.00">
        <route edges="B1B0 B0A0 A0A1 A1B1 B1C1"/>
    </vehicle>
    <vehicle id="71" depart="497.00">
        <route edges="A2B2 B2C2 C2C1 C1C0"/>
    </vehicle>
    <vehicle id="72" depart="504.00">
        <route edges="B1A1 A1A0 A0B0 B0B1 B1B2 B2A2 A2A1"/>
    </vehicle>
    <vehicle id="73" depart="511.00">
        <route edges="B1B2 B2C2 C2C1 C1C0 C0B0"/>
    </vehicle>
    <vehicle id="74" depart="518.00">
        <route edges="A1B1 B1B0 B0A0"/>
    </vehicle>
    <vehicle id="75" depart="525.00">
        <route edges="C2C1 C1B1 B1A1 A1A2 A2B2 B2B1"/>
    </vehicle>
    <vehicle id="76" depart="532.00">
        <route edges="B1A1 A1A0 A0B0 B0B1 B1B2"/>
    </vehicle>
    <vehicle id="77" depart="539.00">
        <route edges="A1A0 A0B0 B0B1 B1B2 B2A2 A2A1"/>
    </vehicle>
    <vehicle id="78" depart="546.00">
        <route edges="B0B1 B1B2 B2A2"/>
    </vehicle>
    <vehicle id="79" depart="553.00">
        <route edges="A2A1"/>
    </vehicle>
    <vehicle id="80" depart="560.00">
        <route edges="A0B0 B0C0 C0C1 C1C2 C2B2 B2B1"/>
    </vehicle>
    <vehicle id="81" depart="567.00">
        <route edges="A2A1 A1B1 B1C1 C1C2"/>
    </vehicle>
    <vehicle id="82" depart="574.00">
        <route edges="C1C0 C0B0 B0B1 B1A1 A1A0 A0B0"/>
    </vehicle>
    <vehicle id="83" depart="581.00">
        <route edges="A2A1 A1B1 B1B2 B2C2"/>
    </vehicle>
    <vehicle id="84" depart="588.00">
        <route edges="A2A1 A1B1 B1B0 B0A0 A0A1 A1A2"/>
    </vehicle>
    <vehicle id="85" depart="595.00">
        <route edges="C2B2 B2B1 B1C1"/>
    </vehicle>
    <vehicle id="86" depart="602.00">
        <route edges="B1B0 B0C0 C0C1"/>
    </vehicle>
    <vehicle id="87" depart="609.00">
        <route edges="C1B1 B1B0 B0A0 A0A1 A1B1"/>
    </vehicle>
    <vehicle id="88" depart="616.00">
        <route edges="A1A0 A0B0 B0B1 B1A1"/>
    </vehicle>
    <vehicle id="89" depart="623.00">
        <route edges="B1A1 A1A2 A2B2 B2B1 B1B0"/>
    </vehicle>
    <vehicle id="90" depart="630.00">
        <route edges="C0B0 B0B1 B1B2 B2C2"/>
    </vehicle>
    <vehicle id="91" depart="637.00">
        <route edges="C2C1 C1B1 B1A1 A1A0"/>
    </vehicle>
    <vehicle id="92" depart="644.00">
        <route edges="B0C0 C0C1 C1B1 B1A1 A1A0 A0B0 B0B1"/>
    </vehicle>
    <vehicle id="93" depart="651.00">
        <route edges="C1C0 C0B0 B0B1 B1B2 B2A2 A2A1"/>
    </vehicle>
    <vehicle id="94" depart="658.00">
        <route edges="A1B1 B1C1 C1C0 C0B0 B0B1 B1A1"/>
    </vehicle>
    <vehicle id="95" depart="665.00">
        <route edges="B1A1 A1A2 A2B2"/>
    </vehicle>
    <vehicle id="96" depart="672.00">
        <route edges="A2A1 A1B1 B1C1 C1C2 C2B2"/>
    </vehicle>
    <vehicle id="97" depart="679.00">
        <route edges="B1A1 A1A2 A2B2 B2C2 C2C1 C1C0"/>
    </vehicle>
    <vehicle id="98" depart="686.00">
        <route edges="B1C1 C1C2 C2B2 B2A2 A2A1 A1A0 A0B0"/>
    </vehicle>
    <vehicle id="99" depart="693.00">
        <route edges="C2C1 C1C0"/>
    </vehicle>
    <vehicle id="100" depart="700.00">
        <route edges="C2C1 C1C0 C0B0 B0B1 B1C1 C1C2 C2B2"/>
    </vehicle>
    <vehicle id="101" depart="707.00">
        <route edges="C1C0 C0B0 B0A0 A0A1 A1A2"/>
    </vehicle>
    <vehicle id="102" depart="714.00">
        <route edges="B1B0 B0C0 C0C1 C1C2 C2B2 B2A2 A2A1"/>
    </vehicle>
    <vehicle id="103" depart="721.00">
        <route edges="B0C0 C0C1 C1B1 B1A1 A1A0 A0B0"/>
    </vehicle>
    <vehicle id="104" depart="728.00">
        <route edges="B0C0 C0C1 C1B1 B1B2 B2C2 C2C1"/>
    </vehicle>
    <vehicle id="105" depart="735.00">
        <route edges="A2B2 B2B1 B1B0 B0C0 C0C1"/>
    </vehicle>
    <vehicle id="106" depart="742.00">
        <route edges="B1A1"/>
    </vehicle>
    <vehicle id="107" depart="749.00">
        <route edges="C2B2 B2B1 B1A1 A1A2 A2B2 B2C2 C2C1"/>
    </vehicle>
    <vehicle id="108" depart="756.00">
        <route edges="B1C1 C1C0 C0B0"/>
    </vehicle>
    <vehicle id="109" depart="763.00">
        <route edges="A1A2 A2B2 B2B1 B1B0 B0A0"/>
    </vehicle>
    <vehicle id="110" depart="770.00">
        <route edges="C2C1 C1C0 C0B0 B0B1 B1C1"/>
    </vehicle>
    <vehicle id="111" depart="777.00">
        <route edges="B1C1 C1C0 C0B0"/>
    </vehicle>
    <vehicle id="112" depart="784.00">
        <route edges="A0B0 B0B1 B1B2 B2A2"/>
    </vehicle>
    <vehicle id="113" depart="791.00">
        <route edges="B1B2 B2C2 C2C1 C1C0"/>
    </vehicle>
    <vehicle id="114" depart="798.00">
        <route edges="A1A2 A2B2 B2C2 C2C1"/>
    </vehicle>
    <vehicle id="115" depart="805.00">
        <route edges="A0B0 B0B1 B1B2 B2A2 A2A1 A1B1"/>
    </vehicle>
    <vehicle id="116" depart="812.00">
        <route edges="B2A2 A2A1 A1B1 B1B2 B2C2"/>
    </vehicle>
    <vehicle id="117" depart="819.00">
        <route edges="A2A1 A1A0"/>
    </vehicle>
    <vehicle id="118" depart="826.00">
        <route edges="C1C2 C2B2 B2A2 A2A1"/>
    </vehicle>
    <vehicle id="119" depart="833.00">
        <route edges="B2A2"/>
    </vehicle>
    <vehicle id="120" depart="840.00">
        <route edges="B1A1 A1A0 A0B0 B0B1 B1B2 B2A2"/>
    </vehicle>
    <vehicle id="121" depart="847.00">
        <route edges="B1B2 B2A2 A2A1 A1B1 B1C1 C1C2 C2B2"/>
    </vehicle>
    <vehicle id="122" depart="854.00">
        <route edges="A1B1 B1C1 C1C0 C0B0"/>
    </vehicle>
    <vehicle id="123" depart="861.00">
        <route edges="A2A1 A1A0 A0B0 B0C0"/>
    </vehicle>
    <vehicle id="124" depart="868.00">
        <route edges="B2C2 C2C1 C1C0 C0B0 B0A0"/>
    </vehicle>
    <vehicle id="125" depart="875.00">
        <route edges="B0A0 A0A1 A1B1 B1B0 B0C0 C0C1"/>
    </vehicle>
    <vehicle id="126" depart="882.00">
        <route edges="A0B0 B0B1 B1A1"/>
    </vehicle>
    <vehicle id="127" depart="889.00">
        <route edges="C2C1"/>
    </vehicle>
    <vehicle id="128" depart="896.00">
        <route edges="A0B0 B0B1 B1B2 B2A2 A2A1"/>
    </vehicle>
    <vehicle id="129" depart="903.00">
        <route edges="A2B2 B2B1 B1C1 C1C2 C2B2"/>
    </vehicle>
    <vehicle id="130" depart="910.00">
        <route edges="C1C2"/>
    </vehicle>
    <vehicle id="131" depart="917.00">
        <route edges="B0B1 B1A1 A1A2"/>
    </vehicle>
    <vehicle id="132" depart="924.00">
        <route edges="C1C0 C0B0 B0B1 B1B2 B2C2"/>
    </vehicle>
    <vehicle id="133" depart="931.00">
        <route edges="B2A2 A2A1 A1B1 B1B2 B2C2 C2C1"/>
    </vehicle>
    <vehicle id="134" depart="938.00">
        <route edges="B2B1 B1B0 B0A0 A0A1"/>
    </vehicle>
    <vehicle id="135" depart="945.00">
        <route edges="C1B1 B1B0 B0A0"/>
    </vehicle>
    <vehicle id="136" depart="952.00">
        <route edges="B2B1 B1C1 C1C2 C2B2"/>
    </vehicle>
    <vehicle id="137" depart="959.00">
        <route edges="A1A2 A2B2 B2B1 B1A1 A1A0"/>
    </vehicle>
    <vehicle id="138" depart="966.00">
        <route edges="A1A0 A0B0 B0B1 B1C1"/>
    </vehicle>
    <vehicle id="139" depart="973.00">
        <route edges="A2B2 B2C2 C2C1 C1B1 B1B2 B2A2"/>
    </vehicle>
    <vehicle id="140" depart="980.00">
        <route edges="C0B0 B0A0 A0A1 A1B1"/>
    </vehicle>
    <vehicle id="141" depart="987.00">
        <route edges="B2B1 B1A1 A1A2 A2B2"/>
    </vehicle>
    <vehicle id="142" depart="994.00">
        <route edges="B1B0 B0C0 C0C1 C1C2"/>
    </vehicle>
    <vehicle id="143" depart="1001.00">
        <route edges="C1C0 C0B0 B0B1 B1A1 A1A0"/>
    </vehicle>
    <vehicle id="144" depart="1008.00">
        <route edges="B1A1 A1A2 A2B2"/>
    </vehicle>
    <vehicle id="145" depart="1015.00">
        <route edges="A0A1 A1B1 B1B0 B0C0 C0C1"/>
    </vehicle>
    <vehicle id="146" depart="1022.00">
        <route edges="B2B1 B1A1 A1A2 A2B2"/>
    </vehicle>
    <vehicle id="147" depart="1029.00">
        <route edges="C0B0 B0B1 B1C1"/>
    </vehicle>
    <vehicle id="148" depart="1036.00">
        <route edges="B1A1 A1A2 A2B2 B2B1 B1B0 B0A0 A0A1"/>
    </vehicle>
    <vehicle id="149" depart="1043.00">
        <route edges="A0B0 B0C0 C0C1 C1C2"/>
    </vehicle>
    <vehicle id="150" depart="1050.00">
        <route edges="C1C2 C2B2 B2B1 B1C1"/>
    </vehicle>
    <vehicle id="151" depart="1057.00">
        <route edges="C1C0 C0B0 B0B1 B1C1"/>
    </vehicle>
    <vehicle id="152" depart="1064.00">
        <route edges="A1A2"/>
    </vehicle>
    <vehicle id="153" depart="1071.00">
        <route edges="B0A0 A0A1 A1B1 B1C1 C1C2"/>
    </vehicle>
    <vehicle id="154" depart="1078.00">
        <route edges="C1B1 B1B2 B2C2 C2C1 C1C0"/>
    </vehicle>
    <vehicle id="155" depart="1085.00">
        <route edges="C1C2 C2B2 B2A2 A2A1"/>
    </vehicle>
    <vehicle id="156" depart="1092.00">
        <route edges="A2A1 A1A0"/>
    </vehicle>
    <vehicle id="157" depart="1099.00">
        <route edges="C0C1 C1C2"/>
    </vehicle>
    <vehicle id="158" depart="1106.00">
        <route edges="B0C0 C0C1 C1C2 C2B2 B2A2"/>
    </vehicle>
    <vehicle id="159" depart="1113.00">
        <route edges="A1A2 A2B2 B2B1 B1C1 C1C2 C2B2"/>
    </vehicle>
    <vehicle id="160" depart="1120.00">
        <route edges="C1C0 C0B0 B0B1 B1B2 B2C2 C2C1"/>
    </vehicle>
    <vehicle id="161" depart="1127.00">
        <route edges="C1B1 B1B0 B0C0 C0C1 C1C2"/>
    </vehicle>
    <vehicle id="162" depart="1134.00">
        <route edges="A0A1 A1B1 B1C1 C1C0 C0B0"/>
    </vehicle>
    <vehicle id="163" depart="1141.00">
        <route edges="B0A0 A0A1 A1B1 B1C1 C1C2 C2B2"/>
    </vehicle>
    <vehicle id="164" depart="1148.00">
        <route edges="C1B1 B1B2 B2C2 C2C1 C1C0"/>
    </vehicle>
    <vehicle id="165" depart="1155.00">
        <route edges="C1B1 B1A1 A1A2 A2B2"/>
    </vehicle>
    <vehicle id="166" depart="1162.00">
        <route edges="C0C1 C1B1 B1A1 A1A0"/>
    </vehicle>
    <vehicle id="167" depart="1169.00">
        <route edges="C1C0"/>
    </vehicle>
    <vehicle id="168" depart="1176.00">
        <route edges="A2A1 A1A0 A0B0 B0C0 C0C1 C1B1"/>
    </vehicle>
    <vehicle id="169" depart="1183.00">
        <route edges="B1B0 B0A0"/>
    </vehicle>
    <vehicle id="170" depart="1190.00">
        <route edges="C1B1 B1B2 B2A2 A2A1"/>
    </vehicle>
    <vehicle id="171" depart="1197.00">
        <route edges="A0A1 A1B1"/>
    </vehicle>
    <vehicle id="172" depart="1204.00">
        <route edges="B0A0 A0A1 A1B1 B1C1 C1C0"/>
    </vehicle>
    <vehicle id="173" depart="1211.00">
        <route edges="C2C1 C1B1 B1A1 A1A2 A2B2"/>
    </vehicle>
    <vehicle id="174" depart="1218.00">
        <route edges="B2B1 B1B0 B0C0"/>
    </vehicle>
    <vehicle id="175" depart="1225.00">
        <route edges="C2C1 C1B1 B1B2"/>
    </vehicle>
    <vehicle id="176" depart="1232.00">
        <route edges="C2B2 B2A2 A2A1 A1A0"/>
    </vehicle>
    <vehicle id="177" depart="1239.00">
        <route edges="C2C1 C1C0 C0B0 B0A0 A0A1 A1B1"/>
    </vehicle>
    <vehicle id="178" depart="1246.00">
        <route edges="C2C1 C1B1 B1A1 A1A2 A2B2"/>
    </vehicle>
    <vehicle id="179" depart="1253.00">
        <route edges="A1A0 A0B0 B0B1 B1A1"/>
    </vehicle>
    <vehicle id="180" depart="1260.00">
        <route edges="C0B0 B0A0"/>
    </vehicle>
    <vehicle id="181" depart="1267.00">
        <route edges="B2A2 A2A1 A1B1 B1B2"/>
    </vehicle>
    <vehicle id="182" depart="1274.00">
        <route edges="B0C0 C0C1 C1C2 C2B2 B2B1 B1C1"/>
    </vehicle>
    <vehicle id="183" depart="1281.00">
        <route edges="A2B2 B2C2 C2C1 C1C0 C0B0"/>
    </vehicle>
    <vehicle id="184" depart="1288.00">
        <route edges="A0A1 A1B1 B1C1 C1C2 C2B2"/>
    </vehicle>
    <vehicle id="185" depart="1295.00">
        <route edges="B1B2 B2C2 C2C1 C1C0 C0B0"/>
    </vehicle>
    <vehicle id="186" depart="1302.00">
        <route edges="C0B0 B0B1 B1B2 B2C2"/>
    </vehicle>
    <vehicle id="187" depart="1309.00">
        <route edges="B0B1 B1A1 A1A0 A0B0"/>
    </vehicle>
    <vehicle id="188" depart="1316.00">
        <route edges="B2B1 B1B0 B0A0"/>
    </vehicle>
    <vehicle id="189" depart="1323.00">
        <route edges="B0A0 A0A1 A1B1 B1C1 C1C0"/>
    </vehicle>
    <vehicle id="190" depart="1330.00">
        <route edges="C0B0 B0A0"/>
    </vehicle>
    <vehicle id="191" depart="1337.00">
        <route edges="B0A0 A0A1 A1B1 B1B0 B0C0"/>
    </vehicle>
    <vehicle id="192" depart="1344.00">
        <route edges="B0C0 C0C1 C1B1 B1B0 B0A0"/>
    </vehicle>
    <vehicle id="193" depart="1351.00">
        <route edges="A1A2 A2B2 B2B1 B1A1"/>
    </vehicle>
    <vehicle id="194" depart="1358.00">
        <route edges="C2B2 B2B1 B1A1 A1A2 A2B2 B2C2"/>
    </vehicle>
    <vehicle id="195" depart="1365.00">
        <route edges="C1C2 C2B2 B2A2"/>
    </vehicle>
    <vehicle id="196" depart="1372.00">
        <route edges="B0A0 A0A1 A1B1 B1C1"/>
    </vehicle>
    <vehicle id="197" depart="1379.00">
        <route edges="A0A1 A1A2 A2B2"/>
    </vehicle>
    <vehicle id="198" depart="1386.00">
        <route edges="B1A1 A1A2 A2B2 B2B1 B1C1"/>
    </vehicle>
    <vehicle id="199" depart="1393.00">
        <route edges="B2B1 B1B0"/>
    </vehicle>
    <vehicle id="200" depart="1400.00">
        <route edges="B1A1 A1A0 A0B0 B0B1 B1B2 B2A2 A2A1"/>
    </vehicle>
    <vehicle id="201" depart="1407.00">
        <route edges="B1B0 B0C0 C0C1 C1C2"/>
    </vehicle>
    <vehicle id="202" depart="1414.00">
        <route edges="C1B1 B1B0 B0A0 A0A1 A1B1"/>
    </vehicle>
    <vehicle id="203" depart="1421.00">
        <route edges="A1A0 A0B0 B0B1 B1B2"/>
    </vehicle>
    <vehicle id="204" depart="1428.00">
        <route edges="B2B1 B1C1 C1C0 C0B0 B0B1"/>
    </vehicle>
    <vehicle id="205" depart="1435.00">
        <route edges="C1B1 B1B0 B0C0 C0C1"/>
    </vehicle>
    <vehicle id="206" depart="1442.00">
        <route edges="B2C2 C2C1 C1B1 B1B2 B2A2 A2A1"/>
    </vehicle>
    <vehicle id="207" depart="1449.00">
        <route edges="A1B1 B1B0 B0A0 A0A1"/>
    </vehicle>
    <vehicle id="208" depart="1456.00">
        <route edges="A2A1 A1B1 B1B0"/>
    </vehicle>
    <vehicle id="209" depart="1463.00">
        <route edges="C1C0 C0B0 B0B1 B1A1 A1A0 A0B0"/>
    </vehicle>
    <vehicle id="210" depart="1470.00">
        <route edges="B0C0 C0C1 C1C2 C2B2 B2B1"/>
    </vehicle>
    <vehicle id="211" depart="1477.00">
        <route edges="A1B1 B1B2 B2C2"/>
    </vehicle>
    <vehicle id="212" depart="1484.00">
        <route edges="B1B0 B0C0 C0C1 C1C2 C2B2 B2A2 A2A1"/>
    </vehicle>
    <vehicle id="213" depart="1491.00">
        <route edges="B2B1 B1B0 B0A0 A0A1"/>
    </vehicle>
    <vehicle id="214" depart="1498.00">
        <route edges="C0C1"/>
    </vehicle>
    <vehicle id="215" depart="1505.00">
        <route edges="A1A0 A0B0 B0B1 B1A1"/>
    </vehicle>
    <vehicle id="216" depart="1512.00">
        <route edges="A1B1 B1C1 C1C2 C2B2"/>
    </vehicle>
    <vehicle id="217" depart="1519.00">
        <route edges="B1B2 B2A2 A2A1 A1A0 A0B0"/>
    </vehicle>
    <vehicle id="218" depart="1526.00">
        <route edges="A2A1 A1B1 B1C1 C1C0"/>
    </vehicle>
    <vehicle id="219" depart="1533.00">
        <route edges="B1A1 A1A2 A2B2 B2C2 C2C1 C1B1"/>
    </vehicle>
    <vehicle id="220" depart="1540.00">
        <route edges="B2C2 C2C1"/>
    </vehicle>
    <vehicle id="221" depart="1547.00">
        <route edges="B2A2 A2A1 A1B1 B1C1 C1C2 C2B2"/>
    </vehicle>
    <vehicle id="222" depart="1554.00">
        <route edges="C1C2 C2B2 B2A2"/>
    </vehicle>
    <vehicle id="223" depart="1561.00">
        <route edges="C0B0 B0B1 B1B2"/>
    </vehicle>
    <vehicle id="224" depart="1568.00">
        <route edges="C1B1 B1A1 A1A2 A2B2 B2B1 B1C1"/>
    </vehicle>
    <vehicle id="225" depart="1575.00">
        <route edges="C1C2 C2B2 B2B1 B1C1 C1C0 C0B0"/>
    </vehicle>
    <vehicle id="226" depart="1582.00">
        <route edges="B1B0 B0A0 A0A1 A1A2 A2B2"/>
    </vehicle>
    <vehicle id="227" depart="1589.00">
        <route edges="A2A1 A1B1 B1C1 C1C2 C2B2 B2B1"/>
    </vehicle>
    <vehicle id="228" depart="1596.00">
        <route edges="C0C1 C1B1 B1B2"/>
    </vehicle>
    <vehicle id="229" depart="1603.00">
        <route edges="B2B1 B1A1 A1A2 A2B2"/>
    </vehicle>
    <vehicle id="230" depart="1610.00">
        <route edges="A0B0 B0B1 B1A1 A1A2 A2B2"/>
    </vehicle>
    <vehicle id="231" depart="1617.00">
        <route edges="A2B2 B2B1 B1B0 B0A0"/>
    </vehicle>
    <vehicle id="232" depart="1624.00">
        <route edges="B1B2 B2C2 C2C1 C1B1 B1A1 A1A2"/>
    </vehicle>
    <vehicle id="233" depart="1631.00">
        <route edges="A2A1 A1B1 B1B2 B2C2"/>
    </vehicle>
    <vehicle id="234" depart="1638.00">
        <route edges="B2C2 C2C1 C1B1 B1A1 A1A0 A0B0"/>
    </vehicle>
    <vehicle id="235" depart="1645.00">
        <route edges="B0C0 C0C1 C1C2 C2B2 B2B1 B1C1"/>
    </vehicle>
    <vehicle id="236" depart="1652.00">
        <route edges="B0C0 C0C1 C1C2 C2B2 B2A2 A2A1 A1B1"/>
    </vehicle>
    <vehicle id="237" depart="1659.00">
        <route edges="B1A1 A1A0 A0B0 B0C0 C0C1 C1C2"/>
    </vehicle>
    <vehicle id="238" depart="1666.00">
        <route edges="B2A2 A2A1 A1B1 B1B2 B2C2"/>
    </vehicle>
    <vehicle id="239" depart="1673.00">
        <route edges="C1C0 C0B0 B0A0 A0A1 A1B1 B1B0 B0C0 C0C1"/>
    </vehicle>
    <vehicle id="240" depart="1680.00">
        <route edges="B0C0 C0C1 C1B1 B1B0 B0A0 A0A1"/>
    </vehicle>
    <vehicle id="241" depart="1687.00">
        <route edges="B0B1 B1A1 A1A0 A0B0 B0C0 C0C1"/>
    </vehicle>
    <vehicle id="242" depart="1694.00">
        <route edges="C1C0 C0B0 B0B1 B1C1 C1C2 C2B2"/>
    </vehicle>
    <vehicle id="243" depart="1701.00">
        <route edges="B1A1 A1A2 A2B2 B2C2 C2C1 C1C0 C0B0"/>
    </vehicle>
    <vehicle id="244" depart="1708.00">
        <route edges="B1C1 C1C2 C2B2 B2A2"/>
    </vehicle>
    <vehicle id="245" depart="1715.00">
        <route edges="A2A1"/>
    </vehicle>
    <vehicle id="246" depart="1722.00">
        <route edges="B1A1 A1A2 A2B2 B2B1 B1B0 B0A0 A0A1"/>
    </vehicle>
    <vehicle id="247" depart="1729.00">
        <route edges="B0B1 B1B2 B2C2"/>
    </vehicle>
    <vehicle id="248" depart="1736.00">
        <route edges="B0C0 C0C1 C1B1 B1A1 A1A2"/>
    </vehicle>
    <vehicle id="249" depart="1743.00">
        <route edges="B1B0 B0A0 A0A1 A1A2"/>
    </vehicle>
    <vehicle id="250" depart="1750.00">
        <route edges="B2A2 A2A1 A1B1 B1B0 B0A0 A0A1"/>
    </vehicle>
    <vehicle id="251" depart="1757.00">
        <route edges="B0C0 C0C1 C1C2 C2B2 B2B1 B1C1"/>
    </vehicle>
    <vehicle id="252" depart="1764.00">
        <route edges="A0A1 A1A2 A2B2 B2B1"/>
    </vehicle>
    <vehicle id="253" depart="1771.00">
        <route edges="A1A2 A2B2 B2B1 B1B0"/>
    </vehicle>
    <vehicle id="254" depart="1778.00">
        <route edges="A0B0 B0C0"/>
    </vehicle>
    <vehicle id="255" depart="1785.00">
        <route edges="A2A1 A1B1 B1B0 B0A0"/>
    </vehicle>
    <vehicle id="256" depart="1792.00">
        <route edges="C0C1 C1B1 B1B0 B0C0"/>
    </vehicle>
    <vehicle id="257" depart="1799.00">
        <route edges="C0C1 C1B1"/>
    </vehicle>
    <vehicle id="258" depart="1806.00">
        <route edges="A2B2 B2B1 B1A1 A1A0 A0B0"/>
    </vehicle>
    <vehicle id="259" depart="1813.00">
        <route edges="A0A1 A1B1 B1B2"/>
    </vehicle>
    <vehicle id="260" depart="1820.00">
        <route edges="C2C1 C1C0 C0B0 B0B1"/>
    </vehicle>
    <vehicle id="261" depart="1827.00">
        <route edges="B2B1 B1B0 B0C0 C0C1"/>
    </vehicle>
    <vehicle id="262" depart="1834.00">
        <route edges="B2B1 B1B0 B0C0 C0C1"/>
    </vehicle>
    <vehicle id="263" depart="1841.00">
        <route edges="C2B2 B2A2 A2A1 A1B1"/>
    </vehicle>
    <vehicle id="264" depart="1848.00">
        <route edges="A0A1 A1A2"/>
    </vehicle>
    <vehicle id="265" depart="1855.00">
        <route edges="A1A2 A2B2 B2C2"/>
    </vehicle>
    <vehicle id="266" depart="1862.00">
        <route edges="B1C1 C1C2 C2B2 B2A2 A2A1"/>
    </vehicle>
    <vehicle id="267" depart="1869.00">
        <route edges="B2C2 C2C1 C1B1 B1B0 B0C0 C0C1"/>
    </vehicle>
    <vehicle id="268" depart="1876.00">
        <route edges="A1B1 B1B2 B2A2"/>
    </vehicle>
    <vehicle id="269" depart="1883.00">
        <route edges="C0B0 B0B1 B1A1 A1A0"/>
    </vehicle>
    <vehicle id="270" depart="1890.00">
        <route edges="C1B1 B1B2 B2C2 C2C1"/>
    </vehicle>
    <vehicle id="271" depart="1897.00">
        <route edges="A1A0 A0B0 B0B1 B1C1 C1C0 C0B0 B0A0 A0A1"/>
    </vehicle>
    <vehicle id="272" depart="1904.00">
        <route edges="B0A0 A0A1 A1A2 A2B2 B2C2"/>
    </vehicle>
    <vehicle id="273" depart="1911.00">
        <route edges="C2B2 B2B1 B1B0 B0C0"/>
    </vehicle>
    <vehicle id="274" depart="1918.00">
        <route edges="C0B0 B0B1 B1A1 A1A0 A0B0"/>
    </vehicle>
    <vehicle id="275" depart="1925.00">
        <route edges="B2C2 C2C1 C1B1 B1A1 A1A2 A2B2 B2B1"/>
    </vehicle>
    <vehicle id="276" depart="1932.00">
        <route edges="A1A0 A0B0 B0C0 C0C1"/>
    </vehicle>
    <vehicle id="277" depart="1939.00">
        <route edges="C1C0 C0B0 B0B1 B1B2 B2A2"/>
    </vehicle>
    <vehicle id="278" depart="1946.00">
        <route edges="A1A0 A0B0 B0B1 B1B2 B2C2 C2C1"/>
    </vehicle>
    <vehicle id="279" depart="1953.00">
        <route edges="C0C1 C1B1 B1A1 A1A0 A0B0 B0B1"/>
    </vehicle>
    <vehicle id="280" depart="1960.00">
        <route edges="B1A1 A1A0 A0B0 B0B1"/>
    </vehicle>
    <vehicle id="281" depart="1967.00">
        <route edges="B1B2 B2C2 C2C1 C1C0 C0B0 B0B1"/>
    </vehicle>
    <vehicle id="282" depart="1974.00">
        <route edges="C1C0 C0B0 B0B1 B1B2 B2C2 C2C1 C1B1"/>
    </vehicle>
    <vehicle id="283" depart="1981.00">