<?xml version="1.0" encoding="UTF-8"?>

<!-- generated on 2025-11-23T16:38:25.275722+03:00 by Eclipse SUMO netedit 1.25.0
-->

<routes xmlns:xsi="http://www.w3.org/2001/XMLSchema-instance" xsi:noNamespaceSchemaLocation="http://sumo.dlr.de/xsd/routes_file.xsd">
</routes>
