<?xml version="1.0" encoding="UTF-8"?>

<!-- generated on 2025-11-24T11:55:09.125830+03:00 by Eclipse SUMO netedit 1.25.0
-->

<routes xmlns:xsi="http://www.w3.org/2001/XMLSchema-instance" xsi:noNamespaceSchemaLocation="http://sumo.dlr.de/xsd/routes_file.xsd">
    <!-- VTypes -->
    <vType id="ambulance" vClass="emergency" color="red"/>
    <vType id="bus" vClass="bus" color="blue"/>
    <vType id="car" color="yellow"/>
    <!-- Vehicles, persons and containers (sorted by depart) -->
    <flow id="f_0" type="car" begin="0.00" end="3600.00" perHour="6000.00" from="-E3" to="-E0"/>
    <flow id="f_1" type="car" begin="0.00" end="3600.00" perHour="6000.00" from="E0" to="E3"/>
    <flow id="f_10" type="bus" begin="0.00" end="3600.00" perHour="200.00" from="-E1" to="E2"/>
    <flow id="f_11" type="ambulance" begin="0.00" end="3600.00" perHour="70.00" from="-E3" to="-E0"/>
    <flow id="f_2" type="car" begin="0.00" end="3600.00" perHour="500.00" from="-E1" to="E2"/>
    <flow id="f_3" type="car" begin="0.00" end="3600.00" perHour="500.00" from="-E2" to="E1"/>
    <flow id="f_4" type="car" begin="0.00" end="3600.00" perHour="2000.00" from="-E1" to="-E0"/>
    <flow id="f_5" type="car" begin="0.00" end="3600.00" perHour="2000.00" from="E0" to="E2"/>
    <flow id="f_6" type="car" begin="0.00" end="3600.00" perHour="2000.00" from="-E3" to="E1"/>
    <flow id="f_7" type="bus" begin="0.00" end="3600.00" perHour="500.00" from="-E3" to="-E0"/>
    <flow id="f_8" type="bus" begin="0.00" end="3600.00" perHour="1000.00" from="E0" to="E3"/>
    <flow id="f_9" type="bus" begin="0.00" end="3600.00" perHour="50.00" from="-E2" to="E1"/>
</routes>
