<?xml version="1.0" encoding="UTF-8"?>

<!-- generated on 2025-11-24T11:53:48.139303+03:00 by Eclipse SUMO netedit 1.25.0
<neteditConfiguration xmlns:xsi="http://www.w3.org/2001/XMLSchema-instance" xsi:noNamespaceSchemaLocation="http://sumo.dlr.de/xsd/neteditConfiguration.xsd">

    <input>
        <sumocfg-file value="C:\Users\acer\OneDrive\Masaüstü\Git\Traffic_Manegment\SUMO\test.sumocfg"/>
        <route-files value="C:\Users\acer\OneDrive\Masaüstü\Git\Traffic_Manegment\SUMO\test.rou.xml"/>
        <sumo-net-file value="C:\Users\acer\OneDrive\Masaüstü\Git\Traffic_Manegment\SUMO\test.net.xml"/>
    </input>

    <output>
        <output-file value="C:\Users\acer\OneDrive\Masaüstü\Git\Traffic_Manegment\SUMO\test.net.xml"/>
    </output>

    <processing>
        <offset.disable-normalization value="true"/>
    </processing>

    <junctions>
        <no-turnarounds value="true"/>
    </junctions>

    <netedit>
        <new-network value="false"/>
    </netedit>

</neteditConfiguration>
-->

<net version="1.20" junctionCornerDetail="5" limitTurnSpeed="5.50" xmlns:xsi="http://www.w3.org/2001/XMLSchema-instance" xsi:noNamespaceSchemaLocation="http://sumo.dlr.de/xsd/net_file.xsd">

    <location netOffset="0.00,0.00" convBoundary="-118.26,-79.18,95.35,76.24" origBoundary="10000000000.00,10000000000.00,-10000000000.00,-10000000000.00" projParameter="!"/>

    <edge id=":J1_0" function="internal">
        <lane id=":J1_0_0" index="0" speed="6.56" length="9.92" shape="-24.02,3.18 -24.53,0.23 -25.71,-1.75 -27.56,-2.76 -30.07,-2.80"/>
    </edge>
    <edge id=":J1_1" function="internal">
        <lane id=":J1_1_0" index="0" speed="13.89" length="23.62" shape="-24.02,3.18 -24.38,-3.82 -24.50,-8.62 -24.28,-13.42 -23.63,-20.39"/>
    </edge>
    <edge id=":J1_2" function="internal">
        <lane id=":J1_2_0" index="0" speed="8.04" length="4.67" shape="-20.82,3.02 -21.63,-1.44 -21.70,-1.56"/>
    </edge>
    <edge id=":J1_3" function="internal">
        <lane id=":J1_3_0" index="0" speed="13.89" length="22.89" shape="-20.82,3.02 -21.18,-3.84 -21.29,-8.54 -21.08,-13.24 -20.45,-20.07"/>
        <lane id=":J1_3_1" index="1" speed="13.89" length="22.89" shape="-17.63,2.86 -17.97,-3.86 -18.09,-8.46 -17.88,-13.06 -17.27,-19.75"/>
    </edge>
    <edge id=":J1_18" function="internal">
        <lane id=":J1_18_0" index="0" speed="8.04" length="10.80" shape="-21.70,-1.56 -23.52,-4.43 -26.50,-5.94 -30.56,-5.96"/>
    </edge>
    <edge id=":J1_5" function="internal">
        <lane id=":J1_5_0" index="0" speed="6.11" length="9.06" shape="-2.45,-2.69 -5.01,-2.71 -6.79,-1.88 -7.80,-0.19 -8.04,2.36"/>
    </edge>
    <edge id=":J1_6" function="internal">
        <lane id=":J1_6_0" index="0" speed="13.89" length="27.74" shape="-2.45,-2.69 -9.55,-3.56 -16.26,-3.89 -22.98,-3.64 -30.07,-2.80"/>
    </edge>
    <edge id=":J1_7" function="internal">
        <lane id=":J1_7_0" index="0" speed="7.68" length="4.51" shape="-1.96,-5.85 -6.21,-5.89 -6.45,-5.78"/>
    </edge>
    <edge id=":J1_8" function="internal">
        <lane id=":J1_8_0" index="0" speed="13.89" length="28.71" shape="-1.96,-5.85 -9.21,-6.72 -16.26,-7.05 -23.32,-6.80 -30.56,-5.96"/>
    </edge>
    <edge id=":J1_19" function="internal">
        <lane id=":J1_19_0" index="0" speed="7.68" length="10.52" shape="-6.45,-5.78 -9.17,-4.51 -10.85,-1.70 -11.23,2.53"/>
    </edge>
    <edge id=":J1_9" function="internal">
        <lane id=":J1_9_0" index="0" speed="7.12" length="10.58" shape="-7.72,-18.79 -7.50,-16.31 -6.31,-14.39 -4.14,-13.01 -0.99,-12.17"/>
    </edge>
    <edge id=":J1_10" function="internal">
        <lane id=":J1_10_0" index="0" speed="13.89" length="21.19" shape="-7.72,-18.79 -8.29,-12.53 -8.48,-8.23 -8.37,-3.92 -8.04,2.36"/>
    </edge>
    <edge id=":J1_11" function="internal">
        <lane id=":J1_11_0" index="0" speed="8.51" length="3.83" shape="-10.90,-19.11 -10.63,-15.28"/>
    </edge>
    <edge id=":J1_12" function="internal">
        <lane id=":J1_12_0" index="0" speed="13.89" length="21.92" shape="-10.90,-19.11 -11.49,-12.70 -11.68,-8.30 -11.57,-3.90 -11.23,2.53"/>
        <lane id=":J1_12_1" index="1" speed="13.89" length="21.92" shape="-14.08,-19.43 -14.69,-12.88 -14.89,-8.38 -14.77,-3.88 -14.43,2.69"/>
    </edge>
    <edge id=":J1_20" function="internal">
        <lane id=":J1_20_0" index="0" speed="8.51" length="11.70" shape="-10.63,-15.28 -8.97,-12.33 -5.92,-10.24 -1.48,-9.01"/>
    </edge>
    <edge id=":J1_14" function="internal">
        <lane id=":J1_14_0" index="0" speed="8.28" length="12.31" shape="-31.54,-12.29 -28.35,-13.21 -25.96,-14.87 -24.39,-17.26 -23.63,-20.39"/>
    </edge>
    <edge id=":J1_15" function="internal">
        <lane id=":J1_15_0" index="0" speed="13.89" length="30.66" shape="-31.54,-12.29 -23.99,-13.13 -16.27,-13.37 -8.54,-13.05 -0.99,-12.17"/>
    </edge>
    <edge id=":J1_16" function="internal">
        <lane id=":J1_16_0" index="0" speed="9.53" length="4.15" shape="-31.05,-9.13 -27.06,-10.28"/>
    </edge>
    <edge id=":J1_17" function="internal">
        <lane id=":J1_17_0" index="0" speed="13.89" length="29.69" shape="-31.05,-9.13 -23.65,-9.97 -16.26,-10.21 -8.88,-9.89 -1.48,-9.01"/>
    </edge>
    <edge id=":J1_21" function="internal">
        <lane id=":J1_21_0" index="0" speed="9.53" length="12.41" shape="-27.06,-10.28 -26.77,-10.37 -23.58,-12.61 -21.47,-15.84 -20.45,-20.07"/>
    </edge>

    <edge id="-E0" from="J1" to="J0" priority="-1">
        <lane id="-E0_0" index="0" speed="13.89" length="73.56" shape="-8.04,2.36 -4.27,75.83"/>
        <lane id="-E0_1" index="1" speed="13.89" length="73.56" shape="-11.23,2.53 -7.47,75.99"/>
        <lane id="-E0_2" index="2" speed="13.89" length="73.56" shape="-14.43,2.69 -10.66,76.16"/>
    </edge>
    <edge id="-E1" from="J2" to="J1" priority="-1">
        <lane id="-E1_0" index="0" speed="13.89" length="98.21" shape="94.62,12.24 -2.45,-2.69"/>
        <lane id="-E1_1" index="1" speed="13.89" length="98.21" shape="95.11,9.08 -1.96,-5.85"/>
    </edge>
    <edge id="-E2" from="J3" to="J1" priority="-1">
        <lane id="-E2_0" index="0" speed="13.89" length="88.49" shape="-118.99,1.23 -31.54,-12.29"/>
        <lane id="-E2_1" index="1" speed="13.89" length="88.49" shape="-118.50,4.39 -31.05,-9.13"/>
    </edge>
    <edge id="-E3" from="J4" to="J1" priority="-1">
        <lane id="-E3_0" index="0" speed="13.89" length="59.89" shape="-1.70,-78.38 -7.72,-18.79"/>
        <lane id="-E3_1" index="1" speed="13.89" length="59.89" shape="-4.88,-78.70 -10.90,-19.11"/>
        <lane id="-E3_2" index="2" speed="13.89" length="59.89" shape="-8.07,-79.02 -14.08,-19.43"/>
    </edge>
    <edge id="E0" from="J0" to="J1" priority="-1">
        <lane id="E0_0" index="0" speed="13.89" length="73.56" shape="-20.25,76.65 -24.02,3.18"/>
        <lane id="E0_1" index="1" speed="13.89" length="73.56" shape="-17.05,76.49 -20.82,3.02"/>
        <lane id="E0_2" index="2" speed="13.89" length="73.56" shape="-13.86,76.32 -17.63,2.86"/>
    </edge>
    <edge id="E1" from="J1" to="J2" priority="-1">
        <lane id="E1_0" index="0" speed="13.89" length="98.21" shape="-0.99,-12.17 96.08,2.76"/>
        <lane id="E1_1" index="1" speed="13.89" length="98.21" shape="-1.48,-9.01 95.59,5.92"/>
    </edge>
    <edge id="E2" from="J1" to="J3" priority="-1">
        <lane id="E2_0" index="0" speed="13.89" length="88.49" shape="-30.07,-2.80 -117.53,10.71"/>
        <lane id="E2_1" index="1" speed="13.89" length="88.49" shape="-30.56,-5.96 -118.02,7.55"/>
    </edge>
    <edge id="E3" from="J1" to="J4" priority="-1">
        <lane id="E3_0" index="0" speed="13.89" length="59.89" shape="-23.63,-20.39 -17.62,-79.98"/>
        <lane id="E3_1" index="1" speed="13.89" length="59.89" shape="-20.45,-20.07 -14.44,-79.66"/>
        <lane id="E3_2" index="2" speed="13.89" length="59.89" shape="-17.27,-19.75 -11.25,-79.34"/>
    </edge>

    <tlLogic id="J1" type="static" programID="0" offset="0">
        <phase duration="42" state="GGgGGrrrrGGgGGrrrr"/>
        <phase duration="3"  state="yyyyyrrrryyyyyrrrr"/>
        <phase duration="42" state="rrrrrGGgGrrrrrGGgG"/>
        <phase duration="3"  state="rrrrryyyyrrrrryyyy"/>
    </tlLogic>

    <junction id="J0" type="dead_end" x="-12.26" y="76.24" incLanes="-E0_0 -E0_1 -E0_2" intLanes="" shape="-12.26,76.24 -2.67,75.75 -12.26,76.24"/>
    <junction id="J1" type="traffic_light" x="-16.67" y="-9.73" incLanes="E0_0 E0_1 E0_2 -E1_0 -E1_1 -E3_0 -E3_1 -E3_2 -E2_0 -E2_1" intLanes=":J1_0_0 :J1_1_0 :J1_18_0 :J1_3_0 :J1_3_1 :J1_5_0 :J1_6_0 :J1_19_0 :J1_8_0 :J1_9_0 :J1_10_0 :J1_20_0 :J1_12_0 :J1_12_1 :J1_14_0 :J1_15_0 :J1_21_0 :J1_17_0" shape="-25.62,3.27 -6.44,2.28 -6.12,0.13 -5.61,-0.56 -4.87,-1.00 -3.89,-1.18 -2.69,-1.10 -0.75,-13.76 -3.91,-14.69 -4.98,-15.42 -5.70,-16.31 -6.09,-17.38 -6.12,-18.62 -25.23,-20.55 -26.21,-17.25 -27.16,-16.00 -28.40,-15.02 -29.94,-14.31 -31.79,-13.87 -29.83,-1.22 -27.61,-0.99 -26.80,-0.40 -26.20,0.50 -25.81,1.73">
        <request index="0"  response="000000000000000000" foes="000000000101000000" cont="0"/>
        <request index="1"  response="010000000000000000" foes="111100000101000100" cont="0"/>
        <request index="2"  response="000000000000000010" foes="000000000101000010" cont="1"/>
        <request index="3"  response="010000000000000000" foes="111100000101000000" cont="0"/>
        <request index="4"  response="000000000000000000" foes="111100000101000000" cont="0"/>
        <request index="5"  response="000011010000000000" foes="000011010000000000" cont="0"/>
        <request index="6"  response="000011010000011111" foes="000011010010011111" cont="0"/>
        <request index="7"  response="000011010001000000" foes="000011010001000000" cont="1"/>
        <request index="8"  response="000011010000011111" foes="000011010000011111" cont="0"/>
        <request index="9"  response="000000000000000000" foes="101000000000000000" cont="0"/>
        <request index="10" response="000000000010000000" foes="101000100111100000" cont="0"/>
        <request index="11" response="000000010000000000" foes="101000010000000000" cont="1"/>
        <request index="12" response="000000000010000000" foes="101000000111100000" cont="0"/>
        <request index="13" response="000000000000000000" foes="101000000111100000" cont="0"/>
        <request index="14" response="000000000000011010" foes="000000000000011010" cont="0"/>
        <request index="15" response="000011111000011010" foes="010011111000011010" cont="0"/>
        <request index="16" response="001000000000011010" foes="001000000000011010" cont="1"/>
        <request index="17" response="000011111000011010" foes="000011111000011010" cont="0"/>
    </junction>
    <junction id="J2" type="dead_end" x="95.35" y="7.50" incLanes="E1_0 E1_1" intLanes="" shape="95.35,7.50 96.32,1.17 95.35,7.50"/>
    <junction id="J3" type="dead_end" x="-118.26" y="5.97" incLanes="E2_0 E2_1" intLanes="" shape="-118.26,5.97 -117.28,12.29 -118.26,5.97"/>
    <junction id="J4" type="dead_end" x="-9.66" y="-79.18" incLanes="E3_0 E3_1 E3_2" intLanes="" shape="-9.66,-79.18 -19.21,-80.14 -9.66,-79.18"/>

    <junction id=":J1_18_0" type="internal" x="-21.70" y="-1.56" incLanes=":J1_2_0 E0_0" intLanes=":J1_1_0 :J1_6_0 :J1_8_0"/>
    <junction id=":J1_19_0" type="internal" x="-6.45" y="-5.78" incLanes=":J1_7_0 -E1_0" intLanes=":J1_6_0 :J1_10_0 :J1_12_0 :J1_12_1"/>
    <junction id=":J1_20_0" type="internal" x="-10.63" y="-15.28" incLanes=":J1_11_0 -E3_0" intLanes=":J1_10_0 :J1_15_0 :J1_17_0"/>
    <junction id=":J1_21_0" type="internal" x="-27.06" y="-10.28" incLanes=":J1_16_0 -E2_0" intLanes=":J1_1_0 :J1_3_0 :J1_3_1 :J1_15_0"/>

    <connection from="-E1" to="-E0" fromLane="0" toLane="0" via=":J1_5_0" tl="J1" linkIndex="5" dir="r" state="o"/>
    <connection from="-E1" to="E2" fromLane="0" toLane="0" via=":J1_6_0" tl="J1" linkIndex="6" dir="s" state="o"/>
    <connection from="-E1" to="-E0" fromLane="1" toLane="1" via=":J1_7_0" tl="J1" linkIndex="7" dir="r" state="o"/>
    <connection from="-E1" to="E2" fromLane="1" toLane="1" via=":J1_8_0" tl="J1" linkIndex="8" dir="s" state="o"/>
    <connection from="-E2" to="E3" fromLane="0" toLane="0" via=":J1_14_0" tl="J1" linkIndex="14" dir="r" state="o"/>
    <connection from="-E2" to="E1" fromLane="0" toLane="0" via=":J1_15_0" tl="J1" linkIndex="15" dir="s" state="o"/>
    <connection from="-E2" to="E3" fromLane="1" toLane="1" via=":J1_16_0" tl="J1" linkIndex="16" dir="r" state="o"/>
    <connection from="-E2" to="E1" fromLane="1" toLane="1" via=":J1_17_0" tl="J1" linkIndex="17" dir="s" state="o"/>
    <connection from="-E3" to="E1" fromLane="0" toLane="0" via=":J1_9_0" tl="J1" linkIndex="9" dir="r" state="O"/>
    <connection from="-E3" to="-E0" fromLane="0" toLane="0" via=":J1_10_0" tl="J1" linkIndex="10" dir="s" state="O"/>
    <connection from="-E3" to="E1" fromLane="1" toLane="1" via=":J1_11_0" tl="J1" linkIndex="11" dir="r" state="o"/>
    <connection from="-E3" to="-E0" fromLane="1" toLane="1" via=":J1_12_0" tl="J1" linkIndex="12" dir="s" state="O"/>
    <connection from="-E3" to="-E0" fromLane="2" toLane="2" via=":J1_12_1" tl="J1" linkIndex="13" dir="s" state="O"/>
    <connection from="E0" to="E2" fromLane="0" toLane="0" via=":J1_0_0" tl="J1" linkIndex="0" dir="r" state="O"/>
    <connection from="E0" to="E3" fromLane="0" toLane="0" via=":J1_1_0" tl="J1" linkIndex="1" dir="s" state="O"/>
    <connection from="E0" to="E2" fromLane="1" toLane="1" via=":J1_2_0" tl="J1" linkIndex="2" dir="r" state="o"/>
    <connection from="E0" to="E3" fromLane="1" toLane="1" via=":J1_3_0" tl="J1" linkIndex="3" dir="s" state="O"/>
    <connection from="E0" to="E3" fromLane="2" toLane="2" via=":J1_3_1" tl="J1" linkIndex="4" dir="s" state="O"/>

    <connection from=":J1_0" to="E2" fromLane="0" toLane="0" dir="r" state="M"/>
    <connection from=":J1_1" to="E3" fromLane="0" toLane="0" dir="s" state="M"/>
    <connection from=":J1_2" to="E2" fromLane="0" toLane="1" via=":J1_18_0" dir="r" state="m"/>
    <connection from=":J1_18" to="E2" fromLane="0" toLane="1" dir="r" state="M"/>
    <connection from=":J1_3" to="E3" fromLane="0" toLane="1" dir="s" state="M"/>
    <connection from=":J1_3" to="E3" fromLane="1" toLane="2" dir="s" state="M"/>
    <connection from=":J1_5" to="-E0" fromLane="0" toLane="0" dir="r" state="M"/>
    <connection from=":J1_6" to="E2" fromLane="0" toLane="0" dir="s" state="M"/>
    <connection from=":J1_7" to="-E0" fromLane="0" toLane="1" via=":J1_19_0" dir="r" state="m"/>
    <connection from=":J1_19" to="-E0" fromLane="0" toLane="1" dir="r" state="M"/>
    <connection from=":J1_8" to="E2" fromLane="0" toLane="1" dir="s" state="M"/>
    <connection from=":J1_9" to="E1" fromLane="0" toLane="0" dir="r" state="M"/>
    <connection from=":J1_10" to="-E0" fromLane="0" toLane="0" dir="s" state="M"/>
    <connection from=":J1_11" to="E1" fromLane="0" toLane="1" via=":J1_20_0" dir="r" state="m"/>
    <connection from=":J1_20" to="E1" fromLane="0" toLane="1" dir="r" state="M"/>
    <connection from=":J1_12" to="-E0" fromLane="0" toLane="1" dir="s" state="M"/>
    <connection from=":J1_12" to="-E0" fromLane="1" toLane="2" dir="s" state="M"/>
    <connection from=":J1_14" to="E3" fromLane="0" toLane="0" dir="r" state="M"/>
    <connection from=":J1_15" to="E1" fromLane="0" toLane="0" dir="s" state="M"/>
    <connection from=":J1_16" to="E3" fromLane="0" toLane="1" via=":J1_21_0" dir="r" state="m"/>
    <connection from=":J1_21" to="E3" fromLane="0" toLane="1" dir="r" state="M"/>
    <connection from=":J1_17" to="E1" fromLane="0" toLane="1" dir="s" state="M"/>

</net>
